153
 energy: -205.655044343528 gnorm: 0.000319352614 xtb: 6.6.1 (8d0f1dd)
C           -1.71769649628698        6.04880086546090       -1.24801517979961
C           -2.61670897472929        5.01336140080739       -1.30173266203493
C           -2.27304851072056        3.73660297996251       -0.81792195567872
C           -0.99375019287644        3.53395124331584       -0.23880755253281
C           -0.08364101281956        4.60923828594624       -0.22319109640585
C           -0.44060778499381        5.83937449789798       -0.71739909772362
H           -4.15586010821273        2.81592875618625       -1.30675821388693
H           -1.98683581587075        7.02387258951246       -1.62505479305255
H           -3.59810560944571        5.15722786227931       -1.72919340053226
C           -3.16622002241410        2.64687734777004       -0.90783882504962
C           -0.64942996039037        2.23469430119282        0.23628380790478
H            0.91008473749678        4.45130747421603        0.16861583264843
H            0.27066543317616        6.65143324997389       -0.70054646075809
C           -1.50765797789607        1.15778125727490        0.00438088745871
C           -2.80538009810966        1.37756055176269       -0.52670937121582
C            0.58055890745310        2.00546537568376        0.99105112910828
C            0.87831739777728        2.75674788798622        2.16553047826786
C            1.48580379722721        1.04856947913937        0.52802708195028
C            2.15596801587401        2.61476013253631        2.76623672458873
C           -0.07424914218784        3.58137501799354        2.79586113765678
C            2.78030364877609        0.94977582284351        1.10166368925502
C            2.45442624010895        3.34438265707865        3.93283575629944
C            3.09370958679363        1.73361353230921        2.18522382125531
C            0.23983132430754        4.26899113072895        3.94191034876705
H           -1.06603348285118        3.65538132959957        2.37533155346510
C            1.51423527146432        4.16172482516422        4.50834685378589
H            3.43461911481882        3.23674300847772        4.37359694485576
H            4.08060729108990        1.66268271320446        2.61893183983785
H           -0.50354741675645        4.89446420005618        4.41290505309653
H            1.74914451552029        4.71445879907518        5.40536969195445
O            1.18449938114426        0.30678523695512       -0.55303767343745
O           -1.15971809635953       -0.07728418788374        0.40862235650437
P            0.03625744351127       -0.89972161240802       -0.41961285619450
O           -0.41274182794628       -1.17250036249771       -1.80023581388233
O            0.51657640686065       -1.94243645249333        0.50979114037678
C           -3.74490762571904        0.24222979981642       -0.63804094786234
C           -4.26675663092515       -0.33649819862469        0.52810466781952
C           -4.11684555962775       -0.24559204536373       -1.90089302761962
C           -5.14581850911156       -1.39998488603573        0.41240788669502
C           -4.99958042458342       -1.31336135978077       -1.96642539354837
C           -5.52037436547719       -1.90964296892121       -0.82699524584820
C            3.76618036587345        0.02370072154958        0.50667166704375
C            4.29004048476878        0.30103982609098       -0.76520087624210
C            4.17686594433308       -1.11909934950662        1.21033702803072
C            5.20660191662835       -0.57970070763225       -1.31641514978570
C            5.09719163222063       -1.96954254242860        0.61903430785656
C            5.61929729586052       -1.72423915607962       -0.64515881219468
H           -5.28823472711617       -1.69887260598635       -2.93289850795502
H           -5.55106487185393       -1.84277897195851        1.30853964680069
H            5.61490999785631       -0.37413486089985       -2.29490006873818
H            5.40934166525894       -2.85188133593976        1.15471266564717
C           -3.58730119277324        0.36265257401157       -3.17327272808745
C           -2.84091743192745       -0.66530584661653       -4.03310198282050
C           -4.71782202356675        0.99784215728145       -3.99640995038128
H           -2.86715798754458        1.14631120148936       -2.92027005904040
C           -2.27602961286054        0.00736643091006       -5.28058610378178
H           -3.51375441771463       -1.47204794711593       -4.32976916108797
H           -2.03073044686600       -1.09882265125666       -3.44338428730546
C           -4.15027803254686        1.67302965231935       -5.24095325419709
H           -5.43087427983983        0.22753255990085       -4.29492955847964
H           -5.25469537752843        1.72748482152459       -3.38535558049579
C           -3.38750033704791        0.66462832050567       -6.09546180151189
H           -1.75401945629122       -0.73441791788824       -5.88941429087396
H           -1.54349433269085        0.76105902678872       -4.98043969839817
H           -4.96215271563724        2.11514900266707       -5.82358352218302
H           -3.47384360953629        2.47744336637810       -4.94094057503620
H           -2.96250563533721        1.16272068556793       -6.96991162495771
H           -4.07710735628148       -0.10488462417176       -6.45090526097674
C           -3.93210137084617        0.21014040204792        1.89426993948392
C           -5.17626724680642        0.76811157690782        2.59877411066358
C           -3.26192750695212       -0.84432888696890        2.78253488095941
H           -3.22486717931144        1.03743115875954        1.78107068894314
C           -4.78774292539526        1.38290805155611        3.94082288531275
H           -5.90016115969636       -0.03182127757962        2.76195563020204
H           -5.64749819316031        1.52190275899901        1.96289278386036
C           -2.86967369726455       -0.22740167057272        4.12203181408266
H           -3.94406289857959       -1.67925772379234        2.95385267902845
H           -2.37770718852608       -1.23572116502965        2.27336285308558
C           -4.09494495595708        0.35053878205642        4.82656958030440
H           -5.67926065638424        1.76506593996146        4.44338428753867
H           -4.11180086767548        2.22508204334560        3.77106575046932
H           -2.39920418498465       -0.98640135925261        4.75149419677202
H           -2.13411157928120        0.56438270589752        3.95287186978240
H           -3.79720030135948        0.81068710098508        5.77146858939776
H           -4.79317151561266       -0.45847294090920        5.05419631446435
C            3.64174312157932       -1.43940681278358        2.58263955449823
C            2.95341959093288       -2.80936128570254        2.62351768737167
C            4.75441590388790       -1.38999354050985        3.63961054335296
H            2.88411124812608       -0.69697946998134        2.84993256825564
C            2.37607447462353       -3.06367742589672        4.01291757957222
H            3.66511962449495       -3.59982707139867        2.37793573570530
H            2.15555552392566       -2.82835224392339        1.87846802778164
C            4.17475225140043       -1.64004567475408        5.02855855961865
H            5.50507303125650       -2.15055777654120        3.41788812479283
H            5.25056198943239       -0.41689013721219        3.60979779973731
C            3.46816565216075       -2.99189923608079        5.07761946203558
H            1.89635962925039       -4.04492577997346        4.03404456941584
H            1.60619016937576       -2.31677384895924        4.22298389122499
H            4.97389762904550       -1.61091278128870        5.77323968471754
H            3.45976389692301       -0.84955987538720        5.27071206669856
H            3.03310043801694       -3.14933040170996        6.06729998545269
H            4.19577999916237       -3.78803338201069        4.90176770685554
C            3.91787785247303        1.55844148763176       -1.51021699200494
C            5.13143415779502        2.47862032384753       -1.70226566583964
C            3.28057040340634        1.25164696296454       -2.87038813271623
H            3.18001176783028        2.11306506820003       -0.92260503163711
C            4.70227446589407        3.77550865577506       -2.38298645200714
H            5.88295890453241        1.97712828048841       -2.31403751733200
H            5.58068563900309        2.69590707850534       -0.72984966054366
C            2.84731336536596        2.54821591308652       -3.54851057752529
H            3.99419005479671        0.72864699606231       -3.50974939337997
H            2.41929439341535        0.59486922818423       -2.72480215729519
C            4.03937197177170        3.48563915281106       -3.72716185310413
H            5.57149721411700        4.42081385888868       -2.52927330057158
H            3.99602616210223        4.30550115060019       -1.73853741610782
H            2.40048153226545        2.32214302427795       -4.51953235922822
H            2.08225647157209        3.03670610909783       -2.93801660275535
H            3.71123534552557        4.41951187876630       -4.18914395142959
H            4.76616295471860        3.01872688019289       -4.39609501631980
C            6.60884811128124       -2.66241742316497       -1.27878208462111
C            7.88571903341650       -2.79698804542769       -0.43770727413499
C            5.99249533682192       -4.05042408328106       -1.50394503616959
H            6.88979394290586       -2.25683579766108       -2.25742642047203
C            8.88524088716456       -3.71850078701122       -1.13039257905005
H            7.63834783572893       -3.20464724544680        0.54381279140565
H            8.32639512460310       -1.80829968376615       -0.28849920135282
C            6.99316736221846       -4.97205537096601       -2.19488597431944
H            5.70063175810032       -4.48349810340623       -0.54544838593887
H            5.08790504368539       -3.95103623669811       -2.10927639660250
C            8.27085231056758       -5.09523770723350       -1.36868852636206
H            9.78402388841946       -3.81359651690642       -0.51672390266843
H            9.17926263591027       -3.28240935813371       -2.08822851214552
H            6.54444172471860       -5.95796217808643       -2.33734458966381
H            7.23561275307695       -4.57083541722970       -3.18221826437999
H            8.98677338731900       -5.73859289625810       -1.88500021136081
H            8.03659633779766       -5.55956354784404       -0.40766666687147
C           -6.48149723983289       -3.06073754549038       -0.93920268755885
C           -5.95317010685114       -4.31318114336462       -0.22748853382082
C           -7.86099822178911       -2.68988526363420       -0.37513062015208
H           -6.60480746485957       -3.30395583230217       -2.00062600282724
C           -6.93009232025101       -5.47340013909493       -0.39506511800204
H           -5.81740824262458       -4.10571192347140        0.83544205600065
H           -4.97617132532088       -4.57812978222742       -0.63967821946052
C           -8.83567734941365       -3.85187772977215       -0.54028190257198
H           -7.76907340199011       -2.44081194218788        0.68343155306952
H           -8.23785378833142       -1.80607626673925       -0.89539279129172
C           -8.30460044299639       -5.10216063384652        0.15555854749747
H           -6.54537365650267       -6.35408867488436        0.12443501363739
H           -7.01851738761902       -5.72426771659698       -1.45504986448860
H           -9.80737642920612       -3.57786075022440       -0.12283017185373
H           -8.97573217746929       -4.06100718069818       -1.60366389030729
H           -8.99957476544420       -5.93244611581505        0.01188996541909
H           -8.22550488058917       -4.91433513049539        1.22915200241905
