76
 energy: -117.246563818410 gnorm: 0.000756611142 xtb: 6.6.1 (8d0f1dd)
C           -1.80408174147630       -4.55402207883331        2.25765947865831
C           -0.55117990697473       -4.46328179717795        1.71981184277581
C           -0.16909364199910       -3.33376640899743        0.96408751242483
C           -1.09382940197698       -2.27009695228781        0.79421908005674
C           -2.38935785101947       -2.40880035050476        1.33648625219621
C           -2.73351575667129       -3.52338384264297        2.05073375737071
H            1.80690894889186       -4.05211439417227        0.52024832336558
H           -2.09131631532305       -5.42241344412902        2.83201223280756
H            0.16567774931903       -5.26058202372969        1.85263615809984
C            1.10084632841418       -3.25086681074462        0.36035203982950
C           -0.69257835879291       -1.12440352993874        0.04853210066701
H           -3.11473819292817       -1.62681329464128        1.17190347886383
H           -3.72988883216925       -3.61667328352835        2.45693477441864
C            0.53280306104349       -1.12660186247204       -0.57832400027716
C            1.45336880646320       -2.18884407909787       -0.43579710242144
C           -1.58095064170841        0.04892933499021       -0.08534619932404
C           -2.07296279431122        0.74340944036388        1.05607904630694
C           -1.93110170630776        0.48803152532808       -1.34242177516996
C           -2.99758768892815        1.80366502696857        0.86387299191986
C           -1.64372374130396        0.45016005561815        2.36820839092735
C           -2.83153390102413        1.55611735974098       -1.54713829540866
C           -3.50358843451614        2.48607652102125        1.99139271882619
C           -3.37513662268719        2.16717108166084       -0.44387466968168
C           -2.14136021234359        1.14157027854707        3.43823527312565
H           -0.90551560718938       -0.32266802517141        2.51906904849398
C           -3.09031836848179        2.15830850667934        3.25201046657741
H           -4.21594849753538        3.28291084191758        1.83368844337540
H           -4.09725201701562        2.95914698284821       -0.57676472340302
H           -1.80064461434603        0.90893856708945        4.43638048244755
H           -3.47936808619213        2.68707105537869        4.10955884812073
O           -1.38113976736025       -0.15153565253486       -2.45519062706425
O            0.90389082133717       -0.02803267974885       -1.35984532283213
P            0.15668781123359        0.21705786458131       -2.73688410648969
O            0.56852893787543       -0.99258620360298       -3.68321931460754
H            0.65199950537136       -0.69169534087588       -4.58920608539782
O            0.42970886387941        1.54313075916570       -3.29008345531568
C           -3.19959466716632        1.94334003397110       -2.92467766707502
C           -3.81077605827758        0.97850617451345       -3.72262701917873
C           -2.95858237031068        3.22148227229617       -3.43759470365716
C           -4.20011770393150        1.26703529003118       -5.01567199363963
H           -3.98677067365333       -0.00551238501491       -3.31097210318997
C           -3.35759037744255        3.49056067264648       -4.74262782904943
C           -3.97365545962274        2.53367615481784       -5.52663948685679
H           -4.67689113092792        0.50895823105759       -5.62009961746419
H           -3.17980987458110        4.47110052402448       -5.15830392036532
H           -4.27304419048554        2.77427389967247       -6.53670994981851
C            2.77537373409117       -2.10623933702897       -1.09110693945181
C            3.59539973504562       -1.03152543263654       -0.75305678585154
C            3.22049408612916       -3.05829517771752       -2.01404903576580
C            4.85296122536551       -0.89392575760066       -1.30643302822688
H            3.23679004853774       -0.30356450197479       -0.03918864277340
C            4.48994957960972       -2.89975836564240       -2.56035829188556
C            5.30284845634020       -1.83696503722357       -2.21470024251910
H            5.47697973481840       -0.05647424948802       -1.03023691288061
H            4.85355388883774       -3.62385052996269       -3.27418055098645
H            6.28502316992258       -1.74253166758656       -2.65520946589680
C            2.36236955899991       -4.22503583640067       -2.44848465529235
H            1.39546555814739       -4.15754624569991       -1.94130201175933
C            3.01627871546427       -5.55563500213524       -2.06311689312663
H            2.34966041426703       -6.38217191372308       -2.30054967394372
H            3.94817193073465       -5.70153073550287       -2.60383760458580
H            3.23509006651878       -5.58298646536312       -0.99769890199127
C            2.09305979801587       -4.16945473283719       -3.95507148520189
H            1.43462318614083       -4.98593625350679       -4.24518614145671
H            1.61116361712318       -3.22869063674576       -4.21050661333383
H            3.01478115582896       -4.25366094880209       -4.52540402263762
C           -2.25460690867814        4.29175319934103       -2.63620643847488
H           -2.00325645854181        3.88476149259162       -1.65226982365894
C           -3.15703493306874        5.51344834043323       -2.43657624551507
H           -2.66924810070597        6.23372382937956       -1.78312432009505
H           -3.36680026031212        6.00071927161712       -3.38545007534939
H           -4.10423364977490        5.22343050533388       -1.98642049863192
C           -0.93989635927197        4.68888387460493       -3.31403455911643
H           -0.40707476882559        5.41147644271377       -2.69888442006537
H           -0.30857846303035        3.81229546601057       -3.44242613577931
H           -1.11758338459390        5.13375239048607       -4.29012235768741
