75
 energy: -116.691624901498 gnorm: 0.000180987492 xtb: 6.6.1 (8d0f1dd)
C           -1.93103796607227       -4.10186160316521        2.46605995628091
C           -0.62051278047670       -3.98129330670020        2.07450670279328
C           -0.16135010748754       -2.80447003936365        1.44904907037499
C           -1.06102588063576       -1.72396671620223        1.25188909276308
C           -2.40523399316692       -1.89232405104942        1.63068778288281
C           -2.82759682136254       -3.05598881552467        2.23093101654622
H            1.84543449161195       -3.50951937578407        1.15802527809838
H           -2.27538243517047       -5.00589008461719        2.94476019252782
H            0.07706712033513       -4.79121756819950        2.22793223841800
C            1.16314628267992       -2.68969516642671        0.98479237561274
C           -0.58787892368725       -0.54772854015279        0.59523179405250
H           -3.11150623061433       -1.09995096391127        1.43531677234076
H           -3.86222608601113       -3.16302401066309        2.51992806834861
C            0.71428798316732       -0.50025185396909        0.09062704615471
C            1.61697483059071       -1.56852468553374        0.31714703731054
C           -1.44211269027716        0.62424756359114        0.41147456260388
C           -2.04994754981265        1.28920735205063        1.51904027196251
C           -1.64243837490174        1.09705592569356       -0.88841365007474
C           -2.92145893877438        2.38090615367114        1.26567994141837
C           -1.75147772686678        0.96469081900760        2.85482648687453
C           -2.53726480436187        2.16708215755990       -1.13819260977704
C           -3.51106769637290        3.06122392224957        2.35028864687953
C           -3.15158889630388        2.78213934071148       -0.06442887034371
C           -2.33438436648696        1.65252566940693        3.89402460854947
H           -1.04717516239382        0.17313218674724        3.06045589341845
C           -3.22768457644057        2.69763896745975        3.64370158585253
H           -4.18041220024503        3.88292574856924        2.14309566531812
H           -3.83320390275932        3.60033122602507       -0.24765854724301
H           -2.09700598475132        1.38397938330180        4.91231436975125
H           -3.68321936018987        3.22293289350188        4.46929808792525
O           -1.02964708092555        0.46915351716306       -1.91321351514707
O            1.12337674625227        0.61209084016452       -0.55475221410131
P            0.60135232228558        0.79756864049834       -2.13928810329975
O            1.12145105402480       -0.31115061369685       -2.96429831114537
O            0.77771596980670        2.22946242756210       -2.45381883597918
C            3.01365620665350       -1.49675017624333       -0.12267708747792
C            3.78069569106784       -0.34829743023023        0.07442646051965
C            3.61678600623768       -2.60749293093121       -0.71790030963309
C            5.10757874266309       -0.32139411878510       -0.30433564574686
H            3.33731806510937        0.51772498438633        0.54228618550202
C            4.93940753237495       -2.56726508808391       -1.10281604013203
H            3.02855703691672       -3.49279545220849       -0.91027320552384
C            5.71440609900048       -1.42728902812740       -0.89373189893880
H            5.68565686187957        0.57619687412893       -0.13481793611560
H            5.37473252292106       -3.43552495178112       -1.57399742241845
C           -2.83770602898815        2.61254676518494       -2.50228348361832
C           -3.09434024787341        1.69969849860509       -3.52550396693475
C           -2.91789647484808        3.97721925206556       -2.79068870877437
C           -3.43167663384329        2.14280517985060       -4.78828986484605
H           -3.04674475991362        0.64055570576155       -3.32208497043158
C           -3.24525475511399        4.41007854711218       -4.05738806386977
H           -2.68621534591498        4.69813188597178       -2.02037182157199
C           -3.52118507670392        3.50164111905638       -5.07836193238779
H           -3.63550740467048        1.41789802634651       -5.56388354541311
H           -3.28718917187252        5.47064776907164       -4.25441115646155
C            7.17233055274786       -1.39047776363466       -1.27118461947942
H            7.55577508417604       -0.38844562401684       -1.04868563727962
C            7.96728767282094       -2.40199172819768       -0.43831820417992
H            9.02652881615215       -2.32780108393898       -0.67407817149438
H            7.83329223966948       -2.20552565088661        0.62347875760333
H            7.63853913869713       -3.41729709249912       -0.64503354828893
C            7.36148845172503       -1.64954398695515       -2.76861647615280
H            7.05867066436111       -2.65955651115081       -3.03253367329296
H            6.76555258401122       -0.94974619852818       -3.35145416503228
H            8.40779326489804       -1.52338155240605       -3.03867150493184
C           -3.92980734269182        3.96690886777913       -6.45163459366877
H           -4.05351473433113        3.08314794572256       -7.08740646607413
C           -5.27329065101916        4.70182651192384       -6.38752204998122
H           -5.59312221910472        4.98181725137014       -7.38868974288337
H           -6.03391106909929        4.06083281983118       -5.94636340185143
H           -5.19217219233819        5.60399045935241       -5.78650312214583
C           -2.85227701768148        4.85583618259493       -7.07885027143660
H           -2.73599833758376        5.78215139734510       -6.52217602858920
H           -1.89449096598986        4.33906651398340       -7.08842321626621
H           -3.12380969869920        5.10275566115037       -8.10302066823546
