58
 energy: -98.237542773424 gnorm: 0.000536040014 xtb: 6.6.1 (8d0f1dd)
C           -2.08513389989321       -4.70650670742136        2.34777462121348
C           -0.84793811378823       -4.65332865758048        1.77009719021963
C           -0.42484571871979       -3.50174184875536        1.07113178800985
C           -1.29170550726091       -2.37884780656269        1.00153953821339
C           -2.57427603525469       -2.47780603473371        1.58186763281076
C           -2.95921819497731       -3.61413260770268        2.23882347205660
H            1.47885750596140       -4.31185875601868        0.48802624846621
H           -2.40295370220414       -5.59140372115871        2.87916397228688
H           -0.17420375154370       -5.49581159883815        1.82975242518736
C            0.82467256108501       -3.45460414271810        0.42366523611089
C           -0.85187898734284       -1.21647868866712        0.30727632231665
H           -3.25610274553521       -1.64584545957951        1.49389375574156
H           -3.94468656020565       -3.67650481658963        2.67637254905843
C            0.36299849938748       -1.23631485151757       -0.33948468290025
C            1.22577073715431       -2.35388382790533       -0.29448798596483
C           -1.68861918322206       -0.00023256899483        0.21954274694141
C           -2.11412743002464        0.70581487525537        1.37937518058101
C           -2.02978301689067        0.47747035750178       -1.02612789287178
C           -2.94366506473107        1.84721525962000        1.21643718940194
C           -1.70135086696622        0.34905666658005        2.68096673947294
C           -2.83595002812466        1.62345944957834       -1.20164863908828
C           -3.37950547665055        2.54709563630214        2.36276661466820
C           -3.29343400391136        2.27213177523213       -0.07973896935214
C           -2.12810311552624        1.05910060275125        3.76930884419040
H           -1.03355670951919       -0.48925635078188        2.80834689152132
C           -2.98623339954095        2.15828777823622        3.61235354966747
H           -4.02388950390790        3.40373466840172        2.22835464840995
H           -3.92815505114909        3.13917290456001       -0.19138767061169
H           -1.80136597116682        0.77719771835508        4.75934605669900
H           -3.32158739745716        2.70025013846664        4.48430914413065
O           -1.53248226355818       -0.18206271460057       -2.15298296917194
O            0.75612986643929       -0.11567474429605       -1.07863624172164
P            0.01068276241082        0.14210545314978       -2.45955585079717
O            0.37322932524100       -1.09284879786780       -3.39237018967425
H            0.56673741000663       -0.80259835714963       -4.28458985654221
O            0.31692215084702        1.45670723135517       -3.02245648327714
C           -3.15180528732837        2.11335259266535       -2.55328253955268
C           -3.64321219671507        1.25521296089478       -3.53288072275686
C           -2.95869933620723        3.45676059841730       -2.86458967658257
C           -3.93015098935635        1.73241758345742       -4.79898539064421
H           -3.80859016382276        0.21416821746274       -3.29568548798461
C           -3.24270986153999        3.92916699222483       -4.13250934518949
H           -2.56120149405112        4.12409324850010       -2.11334142840574
C           -3.72885782358241        3.06869180381000       -5.10317715451681
H           -4.31249555604235        1.05767370441145       -5.55166592492581
H           -3.08021579380494        4.97165327642972       -4.36549232466813
H           -3.94793573942373        3.43818332838821       -6.09446105467550
C            2.50755037554695       -2.34049961145136       -1.01941236046208
C            3.39769489744419       -1.27809973584052       -0.88850689298476
C            2.84209671936835       -3.40564041572796       -1.85193224572288
C            4.59472917858270       -1.28122173721055       -1.58171012729139
H            3.15313965930414       -0.45385751537988       -0.23465950621943
C            4.03808721444364       -3.40316167715197       -2.54622145712208
H            2.14937700755882       -4.22671622857064       -1.96814165163590
C            4.91699372365632       -2.34062349209480       -2.41402557455114
H            5.27836260454655       -0.45169660613939       -1.47185082892377
H            4.28417587972194       -4.23178733093317       -3.19463513777050
H            5.85061786222094       -2.33772741206711       -2.95765809282850
