81
 energy: -136.079115130394 gnorm: 0.000225161654 xtb: 6.6.1 (8d0f1dd)
C            2.09359730720135       -4.84400646278322       -2.87681367024255
C            2.91449200317644       -3.81021983760446       -2.51928543460061
C            2.45473105133127       -2.78372811263031       -1.66674689128740
C            1.13133837431468       -2.84811475524575       -1.15448376673511
C            0.30290109456580       -3.91441402519024       -1.56384870144815
C            0.77410068231082       -4.88735218974348       -2.40388095792399
H            4.28026260585973       -1.64553095231521       -1.71904691853071
H            2.45094088417017       -5.62421488411032       -3.53227784804955
H            3.92679576048871       -3.75429999770051       -2.89262926126542
C            3.26982578092667       -1.68333963223755       -1.33657207895894
C            0.67608902141043       -1.81167220780471       -0.29459865740588
H           -0.71709773981032       -3.94945218324531       -1.21184903873555
H            0.12566297855275       -5.69521202861314       -2.70951583363203
C            1.48886342530364       -0.72357814492585       -0.02823004803256
C            2.80819828263595       -0.65888267208446       -0.54584621016612
C           -0.67606276258534       -1.81175419263190        0.29411025366358
C           -1.13124555133670       -2.84836025340354        1.15383403143386
C           -1.48888524110777       -0.72364407777742        0.02795318738066
C           -2.45462144736884       -2.78410561858613        1.66615657691121
C           -0.30275763404223       -3.91470128934164        1.56298908071779
C           -2.80819530408218       -0.65907140711276        0.54564803694885
C           -2.91431814159145       -3.81075970375227        2.51853452927390
C           -3.26975920589997       -1.68368030180124        1.33621405053739
C           -0.77389499497446       -4.88780013814780        2.40286994162650
H            0.71722638406372       -3.94965367763336        1.21093735434013
C           -2.09337787600744       -4.84458276778652        2.87585225391493
H           -3.92660838237408       -3.75493393094351        2.89192916404005
H           -4.28017566094739       -1.64596009550156        1.71875136672312
H           -0.12542039213878       -5.69569272655121        2.70834011503830
H           -2.45066996502143       -5.62491150899410        3.53120145628287
O           -1.02438500600597        0.28765066289028       -0.75756924783745
O            1.02429851555400        0.28757252268007        0.75744052223775
P           -0.00004944997739        1.37346188959004       -0.00000002116340
O            0.71411716655780        2.08029172108616       -1.08809839577488
O           -0.71422520398697        2.08015143797461        1.08818348789653
C            3.63927655328751        0.51206465677781       -0.22687238188752
C            4.03879964680725        0.73733698435501        1.10623096219161
C            4.01135352476076        1.40912718231710       -1.24748941260106
C            3.72851056520997       -0.16549116027267        2.14945531404107
C            4.81047058593084        1.89718397931864        1.42433618364343
C            4.79296233043451        2.56029266351611       -0.91796797706559
C            3.60251149842414        1.24111831551124       -2.59045962632930
C            4.12051746511228        0.08149499758466        3.43786596901848
H            3.17100801426624       -1.06070755975987        1.91771618245211
C            5.20055370413864        2.11800145448737        2.76647750468491
C            5.16976655386532        2.78129906383270        0.40653104447615
C            5.15232702134519        3.46582120207748       -1.94442582344481
H            2.97456306258794        0.40110097688213       -2.84409921053237
C            3.96669576607368        2.14033795794231       -3.55700093650397
C            4.85784848624264        1.23429231551213        3.75205019592010
H            3.86496772278383       -0.61555962567246        4.22223021879533
H            5.77751064319241        3.00237223532509        2.99512002927890
H            5.74926879843154        3.66065226401957        0.65127806256722
C            4.75176849413173        3.25873451777909       -3.23529287558817
H            5.74339368436827        4.33149305827767       -1.68233858477794
H            3.63953240938630        1.99713433762305       -4.57612028102310
H            5.15524778254342        1.41268929133263        4.77475122802859
H            5.02535151626228        3.95777006114227       -4.01166531419730
C           -3.63930663618708        0.51193024972548        0.22696121037601
C           -4.03894003397614        0.73746238393821       -1.10606474159580
C           -4.01130182542863        1.40879229230384        1.24778490570689
C           -3.72873152049493       -0.16516081581862       -2.14949056014664
C           -4.81064134169262        1.89736888156767       -1.42387934227969
C           -4.79293552826995        2.56002319351800        0.91855256584697
C           -3.60234728166333        1.24052236363669        2.59068747414973
C           -4.12085524734327        0.08206998219615       -3.43781982445006
H           -3.17120297306487       -1.06041768222686       -1.91796979377929
C           -5.20084504385837        2.11844140409861       -2.76594322609917
C           -5.16985047692491        2.78128718702123       -0.40587238428213
C           -5.15221220180766        3.46535325635664        1.94521592000351
H           -2.97438351784140        0.40045232617531        2.84411370741643
C           -3.96644414515375        2.13955786274413        3.55743288321157
C           -4.85822529729739        1.23492073705769       -3.75171582624138
H           -3.86538204321489       -0.61483721451031       -4.22233749493786
H           -5.77782328453182        3.00285492253889       -2.99436655866262
H           -5.74937314261626        3.66068805191967       -0.65040000390726
C           -4.75154308422250        3.25801697777627        3.23600889064075
H           -5.74329639099500        4.33107888780345        1.68334587737268
H           -3.63919624789844        1.99615439750576        4.57649797220274
H           -5.15572314690455        1.41350910531341       -4.77435434913706
H           -5.02505677736571        3.95690362143104        4.01253980027142
