69
 energy: -110.369173599393 gnorm: 0.000517246633 xtb: 6.6.1 (8d0f1dd)
C           -1.99246176629224       -3.97626767492516        2.13429718451302
C           -0.67878879216540       -3.93003960915498        1.73602630590280
C           -0.15850621315872       -2.78448194656548        1.10467121715309
C           -0.99511184352221       -1.65497970326901        0.91028650810100
C           -2.34654628026077       -1.74761359918311        1.29528161845465
C           -2.83100773209212       -2.88353767476696        1.89857935944227
H            1.81558214620353       -3.59476200953310        0.80862988021670
H           -2.38408172257085       -4.85874710650719        2.61688740984952
H           -0.02659266457427       -4.77692269060060        1.89011200916994
C            1.17317297270325       -2.74240440310959        0.63664151824772
C           -0.46170871634690       -0.50095130525019        0.25979081916243
H           -3.00869459303915       -0.91864042240049        1.09737967749853
H           -3.86946867781852       -2.93367628039681        2.18912201401884
C            0.82821129131152       -0.54574051613003       -0.28404632267687
C            1.66528889057276       -1.66174513515080       -0.05441398832931
C           -1.22296073364990        0.73932541694769        0.16466937386565
C           -1.78569099068670        1.36094907103282        1.32047960364452
C           -1.42579501448529        1.31114981387527       -1.09786073585171
C           -2.64964263197423        2.47396756426921        1.15277459570361
C           -1.45290917780331        0.96120888198840        2.62917599626548
C           -2.31618516203390        2.39831666597055       -1.25804047450772
C           -3.20236873949691        3.09691113961203        2.28753477507602
C           -2.91598591951141        2.94746577716174       -0.15111366668254
C           -1.99721167041647        1.59647791636763        3.71970006740015
H           -0.74910696360817        0.15521933878346        2.77039187190240
C           -2.88782055202013        2.65998770372100        3.55128056092373
H           -3.87017160449878        3.93360548688234        2.14490905067037
H           -3.59435226201422        3.77984810406183       -0.27683375522582
H           -1.73230159569315        1.27298115883400        4.71493513350794
H           -3.31583899261103        3.14337595970570        4.41629107589295
O           -0.88087931928707        0.74072619413252       -2.18896768032217
O            1.32765232741421        0.53551625771617       -0.91404779773317
P            0.76507839844517        0.90272674343389       -2.44480074242292
O            1.12335315433421       -0.17929039131787       -3.38375996868621
O            1.09995839978923        2.32541895246788       -2.65564703581927
C            3.06593473170719       -1.64441632096221       -0.53942291442511
C            4.02605955126910       -0.93171308358989        0.17902644256808
C            3.40946028590282       -2.34051696971951       -1.70249380828766
C            5.34165681908403       -0.92927878741052       -0.27373281335733
C            4.73556061586115       -2.31507492559930       -2.12919685696339
C            5.69476030705396       -1.61677932949397       -1.42216477641456
C           -2.60501166333108        2.91158522000600       -2.61837674789397
C           -3.49453560754225        2.21190797126857       -3.43412279069475
C           -1.98449518057539        4.08062168494011       -3.06938629188667
C           -3.76445689507743        2.69877044717621       -4.70925461982414
C           -2.27537842078670        4.53893820140701       -4.35260301048554
C           -3.15699534192364        3.85530348139191       -5.16695010735164
H            6.71866867704711       -1.60464250097482       -1.76575336068457
H           -3.37044351578979        4.22065000357182       -6.16069541838058
H            5.00861778233499       -2.84843357742551       -3.02805143591694
H            6.09091324861257       -0.37991239655122        0.27773368345905
H           -4.45185590066209        2.16210109139015       -5.34704202495870
H           -1.79780592985370        5.43977179817122       -4.70960741798654
C            3.64476932192318       -0.17616941036531        1.41599447154355
H            2.99060436297741        0.65588564893815        1.15357743719052
H            3.10720347836374       -0.81861557974009        2.11295959592899
H            4.52697364617392        0.22253401880759        1.91030526535139
C            2.37120923411027       -3.05317631962796       -2.50539892004504
H            1.75921733683286       -2.30659534032573       -3.01736293821451
H            2.82992292693662       -3.69182004691723       -3.25580955802595
H            1.71078894896385       -3.64843325657474       -1.87748365198702
C           -0.98817764530585        4.79847304096905       -2.21891191451822
H           -1.33774062388723        4.91355531749817       -1.19458328091870
H           -0.06848155920429        4.20906509422592       -2.19252509889109
H           -0.75533496905725        5.77590704010636       -2.63353398437037
C           -4.14324304866475        0.95163660604721       -2.94694969331624
H           -3.39226905441404        0.16826844326024       -2.83899651525319
H           -4.60946017013384        1.10566320255458       -1.97418071551007
H           -4.89744511810034        0.61012382482463       -3.65133926780099
