93
 energy: -135.684294397424 gnorm: 0.000484194980 xtb: 6.6.1 (8d0f1dd)
C           -2.47680886451179        4.23667899423866       -2.71582492140456
C           -3.29527976561230        3.28231984993426       -2.16019314711822
C           -2.75776195177803        2.24112379723333       -1.38429773547048
C           -1.36336215586827        2.20181984150148       -1.13660478666406
C           -0.54638506264961        3.16935910441588       -1.75312351048070
C           -1.09508948619271        4.16636405813940       -2.52395071757395
H           -4.63858052159443        1.25713083894356       -1.01219112915815
H           -2.89591845122761        5.03155791634985       -3.31373742575740
H           -4.36251560187312        3.31051196617812       -2.32269455296262
C           -3.56975707914957        1.21129822787821       -0.85632522263731
C           -0.82227195192979        1.14818588834409       -0.33570636214149
H            0.52472534434502        3.10991856652400       -1.63318078883132
H           -0.45183062779192        4.89794786686211       -2.98883955567933
C           -1.63751838879677        0.05669890187965        0.02371863048313
C           -3.04055419296389        0.13224893616144       -0.19508989324503
C            0.53986510787710        1.25479368589456        0.16651338242113
C            0.98889088831326        2.44516204562232        0.82336681373072
C            1.43976109077784        0.20793388279698       -0.05060458516842
C            2.37218246522154        2.59356958584192        1.10122964087435
C            0.10519415518502        3.44232170308069        1.27563315333542
C            2.82185599454449        0.37315940498076        0.20164543522589
C            2.82762836286940        3.75927085719099        1.74672515651787
C            3.26227813425909        1.55773041391565        0.74430256784646
C            0.57547808240035        4.56281457410046        1.91798601904275
H           -0.95632093292146        3.31784983872933        1.12724397105386
C            1.94416141055896        4.73283873561806        2.14191601175598
H            3.88538816158286        3.86470964960583        1.93664090819548
H            4.31814864931110        1.69201557178648        0.92847241810342
H           -0.12010326013269        5.31659958616866        2.25434518259749
H            2.30026769106947        5.62317387364028        2.63737157198506
O            1.00206666138411       -0.92614480667544       -0.63709723261291
O           -1.17205911055468       -0.97378531200350        0.72406025798892
P            0.13713023056540       -1.95716648522123        0.33173339792629
O           -0.35191201259302       -3.03503419569083       -0.54822235916964
O            0.84515577175401       -2.19012579479455        1.60513655433370
C           -3.96515177848372       -0.92043132624581        0.29625921317342
C           -4.44532724905097       -0.85618146071538        1.61419514372837
C           -4.45193681533704       -1.89688747828173       -0.58777186546242
C           -5.41703671211269       -1.76861121277437        2.01975049942615
C           -5.45619375315963       -2.75923407691648       -0.13882257215070
C           -5.93737763295496       -2.70496065504992        1.14920044551405
C            3.76013955404502       -0.72266202354487       -0.13620152600789
C            3.98783642052334       -1.04148428906917       -1.47997764753434
C            4.40813369090882       -1.42813936008550        0.88578815600591
C            4.84166482517628       -2.09597945070319       -1.78535848660663
C            5.25435236809610       -2.47668221391006        0.53679872292314
C            5.46178540186212       -2.81826140832615       -0.78466984808076
H           -5.86326786158607       -3.48783715921977       -0.82477039190914
H           -5.78409888877739       -1.72898796210797        3.03536304150837
H            5.02383473144058       -2.35558206462026       -2.81686603176868
H            5.75535348425023       -3.03621557948420        1.31156980630108
C           -3.98840035925517        0.08945907533264        2.71288449382070
H           -4.84794890998964        0.19437459484099        3.38709637018857
C           -3.99937248519903       -2.19655253095255       -2.00636035847265
H           -4.92075579669332       -2.33591442053519       -2.58986103220983
C            4.24204438329697       -1.07583472470151        2.34581373783697
H            3.49319306562095       -0.28365749946052        2.43815197720436
C            3.39015425545619       -0.22732554499132       -2.60526641046047
H            2.71736961672598        0.52526695664525       -2.18223544944697
H            6.11452589654258       -3.64180174867094       -1.03536652136104
H           -6.70949604917193       -3.38568389307959        1.47553539778277
C            5.56790298869620       -0.56062106917494        2.91899780469465
H            5.42147609494540       -0.21499100002122        3.93995992729630
H            6.31489333510982       -1.35035621256377        2.92831866421359
H            5.95300707155039        0.26441926655698        2.32341834598582
C            3.73096020828724       -2.27027946462812        3.15482466258608
H            3.58376111267819       -1.97695798532123        4.19251046953945
H            2.77642713621343       -2.60383072599790        2.75419248104941
H            4.42965286458028       -3.10254673722388        3.12956931163486
C            4.49876607891233        0.51324172543034       -3.36203409576389
H            5.18558038597437       -0.18851114470601       -3.82798251158803
H            4.06544521817090        1.13915979821414       -4.13919904570308
H            5.06383883027020        1.14574126648040       -2.68006067532073
C            2.56696040782318       -1.10435598887538       -3.55170585799175
H            1.81039337176657       -1.65036816923994       -2.99066100990731
H            2.06804469191224       -0.48515316647397       -4.29503879957565
H            3.19476317331837       -1.82391593932193       -4.07090965400566
C           -3.25224983376393       -3.54182667311113       -1.99654579252691
H           -3.04098805937511       -3.85707275870537       -3.01633423766030
H           -2.30702940458387       -3.44289488404920       -1.46757798442679
H           -3.83168153839592       -4.32119059063544       -1.50867721729020
C           -3.14448052263184       -1.18591086427473       -2.76245807776061
H           -3.62958839788185       -0.21634704233763       -2.84029645547626
H           -2.16980623116538       -1.06464779233271       -2.29539117088778
H           -2.97890133180185       -1.56474802667343       -3.77032446319469
C           -3.57546230171817        1.50868217689368        2.32603782094510
H           -2.58204200736247        1.52889667796584        1.88856986101756
H           -4.28344382505305        1.94962761209964        1.62851542442674
H           -3.55475374769034        2.12213587162684        3.22573925672333
C           -2.86843428073125       -0.58977530074130        3.51401984238688
H           -2.00275571866310       -0.78647576500143        2.88623791512844
H           -2.55975822918963        0.04603756189008        4.34159249477204
H           -3.20764972625479       -1.54206876827960        3.91648675538165
