110
 energy: -154.166147753432 gnorm: 0.000395300253 xtb: 6.6.1 (8d0f1dd)
C           -2.21604578905044        5.03507235391177       -2.58520276240304
C           -3.07239034188054        4.02191521592560       -2.25875685926318
C           -2.62527991605357        2.91475088890120       -1.50669134412816
C           -1.28222898027517        2.87639905152510       -1.05132585309608
C           -0.41641314049072        3.92345949482291       -1.43552500537607
C           -0.87292494376072        4.97343284806917       -2.18355677655708
H           -4.50724849466239        1.87589001939390       -1.54008324945717
H           -2.56048264073967        5.87831707091068       -3.16546382940805
H           -4.10263249873903        4.04350448244374       -2.58427225498107
C           -3.47623098351389        1.83237730486635       -1.21712381859166
C           -0.85070694290457        1.77929267606066       -0.25432245453433
H            0.62164162437048        3.87952324107979       -1.14233988543164
H           -0.19472892728612        5.76259653026149       -2.47353468337534
C           -1.68686679781496        0.69422062796352       -0.06010800786696
C           -3.02194065128854        0.72314844734608       -0.54774385144602
C            0.48729472888991        1.79215942142516        0.36787359022786
C            0.89089298180814        2.87039306904054        1.20593284009617
C            1.35939017094194        0.75105154679245        0.12067716676920
C            2.23549684504248        2.91871653857422        1.65614427524047
C            0.00187113256387        3.87616499135145        1.64145029728380
C            2.70868032350090        0.80396396008003        0.55503077036228
C            2.65199120698046        3.99214060760251        2.47117471941944
C            3.12383851251215        1.89227945362550        1.27859329085678
C            0.43191369862474        4.89587804076688        2.44567902931075
H           -1.03408265677948        3.83082586691773        1.34040528439848
C            1.77145864536958        4.96475978949959        2.85472241393927
H            3.68270420173035        4.02075395351639        2.79555845079341
H            4.15857908004608        1.96013021182949        1.58377349222682
H           -0.26407821210557        5.65442290006133        2.77337700699981
H            2.09719425202798        5.78189209090642        3.48185258616506
O            0.93049836689299       -0.31213035635968       -0.62982891894429
O           -1.28026646381133       -0.37200658037723        0.67429729226252
P           -0.05807762598577       -1.38765890571195        0.13351654148636
O           -0.60173407781587       -2.27146866410767       -0.92737023192090
O            0.54691576845566       -1.93648865793415        1.36916507433017
C           -3.95580466311741       -0.38816566967137       -0.29607159120526
C           -4.57969823429811       -0.49267315904962        0.97719358034624
C           -4.31049859144225       -1.27773363951063       -1.34259693236670
C           -5.48815231240978       -1.50328923995554        1.19814860031823
C           -5.28167176668894       -2.22792505167161       -1.09392369050936
C           -5.87074513508326       -2.41587505819603        0.18237939553577
C            3.65823562246865       -0.27105342378713        0.18706044481131
C            4.04869207473021       -0.41849613352767       -1.14806845192205
C            4.18876249656516       -1.11632401532139        1.16843820432609
C            4.94221976219703       -1.42584878440361       -1.48240254502833
C            5.08170552122089       -2.10748775232063        0.78932481780153
C            5.46416933951896       -2.28586945324844       -0.53061521818828
H           -5.60389036607919       -2.87124393242826       -1.90016451154697
H           -5.95045616746233       -1.58761282796245        2.17027626624956
H            5.24525543409846       -1.54337314783133       -2.51338974207945
H            5.48905645558662       -2.75888797976958        1.54741909750355
C           -4.35878868280213        0.40056624712185        2.18956340608928
H           -5.31363328574797        0.39506421446503        2.73113434293150
C           -3.74463338734695       -1.37229018522049       -2.75462072621758
H           -4.61580258578335       -1.38365653752285       -3.42499406563234
C            3.83632071818454       -0.97179644516474        2.63280717064297
H            3.07444504094289       -0.19358907960288        2.73582556748988
C            3.57440183082962        0.53068822136115       -2.22770958815503
H            2.86798039926244        1.24110149908243       -1.78768216860539
C            5.06981422996440       -0.55123522650065        3.43955577508767
H            4.79577861107207       -0.37658256846853        4.47821296118866
H            5.83252405188151       -1.32591445325013        3.41061450992220
H            5.49918324589942        0.36361868305076        3.03602786140989
C            3.23521997869503       -2.26306644289875        3.19216322209866
H            2.96851658216042       -2.12629005564953        4.23900259023244
H            2.33346952593364       -2.51309588146737        2.63751331464639
H            3.93156637613220       -3.09520862981494        3.12051290462937
C            4.75413202925895        1.33465719859813       -2.78448583155195
H            5.47890739054002        0.68088940517882       -3.26339342963367
H            4.40233619822984        2.05676236714086       -3.51887687779928
H            5.25436593571974        1.87212558336747       -1.98082149288765
C            2.84121338590077       -0.21805410883056       -3.34285886039788
H            2.01596702121832       -0.78991328866597       -2.92184116359420
H            2.43954115579501        0.48769189927012       -4.06833988986450
H            3.50632936278893       -0.90458962652823       -3.86139552925815
C           -3.02056467044349       -2.72336121788693       -2.88617303153426
H           -2.68845788729813       -2.86149990577308       -3.91220224648521
H           -2.14361122916505       -2.73186013736036       -2.24255969390907
H           -3.65155316858415       -3.56592866222338       -2.61685129660459
C           -2.79766929147777       -0.29311472366638       -3.26566257858224
H           -3.26254516933060        0.68703317223139       -3.29815889748775
H           -1.89573990218474       -0.24684852229832       -2.66141351937385
H           -2.49871694968234       -0.55675006530168       -4.27905169035631
C           -4.02273507899613        1.87065043051497        1.94983469393645
H           -2.98754679082371        2.00354873182757        1.65446095712335
H           -4.66858312787097        2.30674837493880        1.19215972070755
H           -4.17435927705851        2.41436994116604        2.88079521225121
C           -3.31496348127290       -0.24929849240511        3.10789516207379
H           -2.35919165758562       -0.34868886646260        2.60088816430143
H           -3.17184066564928        0.36279367249150        3.99523824791520
H           -3.63227499237623       -1.24245940468514        3.41904417733235
C            6.43575610521993       -3.37237500868296       -0.92798918238255
H            6.57415409370154       -3.32158138254649       -2.01455051922018
C            7.79919174104781       -3.15549342991282       -0.26603628656022
H            8.50905777246551       -3.90586790811496       -0.60875241469094
H            8.18660739020543       -2.16963442609624       -0.51595444143018
H            7.71839113478953       -3.22715547530888        0.81588571126488
C            5.87666443781664       -4.75606730456501       -0.58807120221120
H            5.76421164225034       -4.87558404879803        0.48686941680730
H            4.89892830191714       -4.89022247390259       -1.04758235312127
H            6.54405510773361       -5.53452170702768       -0.95342241511632
C           -6.11459554561251       -3.97178286576098        0.58124663986368
H           -5.74516544871259       -4.62154885168246       -0.20409439603901
C           -5.74421620594814       -4.42053358198625        1.95624144941608
H           -4.66462899077876       -4.39776241016538        2.09725284065081
H           -6.22083241757140       -3.82710044741944        2.73071131724241
H           -6.06720647779826       -5.45597440967417        2.06656937183836
C           -7.25338335423065       -3.12880477304725        0.28703814309719
H           -7.77345991822079       -3.22983816451633       -0.65413714134456
H           -7.86707208181919       -2.77773870728978        1.10447601838359
