121
 energy: -169.661414927622 gnorm: 0.000468659325 xtb: 6.6.1 (8d0f1dd)
C           -2.13911913909586        2.68692484359804        4.48297949280154
C           -2.99390983267448        2.23672831697244        3.50657869765141
C           -2.52069344976928        1.43822393600501        2.44901541428726
C           -1.15072166540082        1.07084251029617        2.41471067080511
C           -0.29427835256802        1.57034902098013        3.41477793838132
C           -0.78125282730024        2.36062089975747        4.42771155579972
H           -4.42930906786977        1.23092233968528        1.47239479167286
H           -2.50978726009477        3.30189177279937        5.28892166145588
H           -4.04132426850489        2.49895211956166        3.52849595846005
C           -3.37649794413512        0.99527780225189        1.41516005316486
C           -0.67424824856886        0.27778186734728        1.32861590042866
H            0.75946011667951        1.33934965334470        3.36854622165126
H           -0.10938367748573        2.73575739179431        5.18490406151888
C           -1.52183347656219       -0.00985162882428        0.25330887181359
C           -2.90467160489232        0.29573488819279        0.33232738348432
C            0.67425019847404       -0.27780503261731        1.32861616856890
C            1.15071879745046       -1.07088356439282        2.41470123439374
C            1.52184201698376        0.00985085008349        0.25332057619151
C            2.52068968746857       -1.43826704465140        2.44900633174206
C            0.29427091206305       -1.57040905689668        3.41475408769280
C            2.90467823895136       -0.29572959910596        0.33234642611616
C            2.99390171192692       -2.23679307964204        3.50655326910042
C            3.37649927347998       -0.99529954056836        1.41516510657965
C            0.78124051418725       -2.36070337498315        4.42767370251657
H           -0.75946744594705       -1.33940733348083        3.36852089296933
C            2.13910588920674       -2.68701031857163        4.48294045334988
H            4.04131602769459       -2.49901796372313        3.52846898471479
H            4.42931056419466       -1.23094110361294        1.47240308071704
H            0.10936870740651       -2.73585435735371        5.18485646475037
H            2.50976995995227       -3.30199493891911        5.28887093389314
O            1.06338318797438        0.71669045616846       -0.79247251318020
O           -1.06337194724688       -0.71667793023067       -0.79249282166804
P            0.00001466526107        0.00000897871410       -1.86593005641840
O           -0.67412286833040        1.11648915195069       -2.55712115211301
O            0.67415862404141       -1.11646913509602       -2.55711786589413
C           -3.80818763769679       -0.19359672137026       -0.73574364286779
C           -4.07080331706763       -1.56594067915927       -0.81729344680684
C           -4.38508871750280        0.70310867572246       -1.64190575327290
C           -4.90457655318682       -2.02996778444419       -1.83048124424209
C           -5.22013309034213        0.19846773157125       -2.63719673936285
C           -5.47124188905659       -1.15508595468951       -2.73810733186304
C            3.80818698099417        0.19361588966396       -0.73571386491601
C            4.07079893069275        1.56595641163592       -0.81724644841732
C            4.38510537805586       -0.70306645032484       -1.64189254009483
C            4.90458859470926        2.02999987902539       -1.83043198405039
C            5.22016249774988       -0.19840949449149       -2.63718237987370
C            5.47128374442977        1.15513359221037       -2.73805687003911
H           -5.67452089303587        0.87435277590065       -3.34506472704180
H           -5.11199914032382       -3.08599710354190       -1.91097961548427
H            5.11198562144157        3.08604118081082       -1.91094285775082
H            5.67452109643623       -0.87426251095709       -3.34510142551089
H            6.11288551726046        1.52964553460094       -3.52228521954568
H           -6.11292410670258       -1.52956212304299       -3.52226302075630
C           -4.13852935612813        2.18610332597720       -1.55966187891703
C           -3.54646157935937        2.73974584578143       -2.86272736941296
C           -5.43330853635717        2.94148669759929       -1.22110158129192
H           -3.40912053094533        2.38311763221259       -0.76812382463016
C           -3.27684684262460        4.23485376203683       -2.72617971300484
H           -4.23252963176966        2.57042274215256       -3.69454175347376
H           -2.61508489574901        2.21255694669735       -3.07836551393601
C           -5.15755981613087        4.43526767506407       -1.08354166853729
H           -6.16849159126408        2.77962591051180       -2.01128649391703
H           -5.85412951521636        2.55080913861423       -0.29142997946287
C           -4.55623231934281        4.98889774621310       -2.37210173737606
H           -2.86516009112090        4.61542100372783       -3.66381498137661
H           -2.52629198943796        4.39468317462109       -1.94795907159298
H           -6.08697589837908        4.96099294945247       -0.85132519892029
H           -4.46021472883462        4.60213612377330       -0.25860179850068
H           -4.34096011710984        6.05358315998267       -2.25666414944287
H           -5.27693757342524        4.87927014587444       -3.18613988118583
C           -3.50788312068401       -2.53684389946028        0.18960810948541
C           -4.62014763262546       -3.22859963354183        0.99039526414924
C           -2.61386885892747       -3.59327111884628       -0.47077286518661
H           -2.88807190978952       -1.98719893181402        0.90466184911862
C           -4.00920050300870       -4.13331209171052        2.05704172361257
H           -5.24406821028887       -3.82390988910982        0.32206375684864
H           -5.25580378270137       -2.47252692212075        1.45801326534027
C           -1.99980079000948       -4.49687748195086        0.59473136818158
H           -3.19910858832634       -4.19726020117934       -1.16674183401077
H           -1.82775059181250       -3.09409053547789       -1.04298014980282
C           -3.09163210733234       -5.17394387032320        1.42031743701495
H           -4.80410162167405       -4.63218071395342        2.61611385345191
H           -3.43438728394270       -3.52594916217469        2.76110926618677
H           -1.37114636893846       -5.25163806324886        0.11665219909259
H           -1.35918096194708       -3.89954051765748        1.25008184483951
H           -2.63851189926597       -5.79490184279609        2.19632476510417
H           -3.68025255522631       -5.82631210563829        0.77101497516782
C            4.13856808715587       -2.18605888036637       -1.55969663456273
C            3.54649748849182       -2.73973360867949       -2.86275113535094
C            5.43331020594970       -2.94146532718806       -1.22108556302043
H            3.40915096775128       -2.38307805485899       -0.76818029347008
C            3.27686538898527       -4.23483384042076       -2.72624323334348
H            4.23257885375173       -2.57040297999200       -3.69454104396755
H            2.61511749767566       -2.21255322121068       -3.07840103873721
C            5.15762706895834       -4.43525877748422       -1.08355191255666
H            6.16849713582956       -2.77958950519811       -2.01126518309003
H            5.85412477172045       -2.55080383465670       -0.29140013348013
C            4.55627173760544       -4.98883074454699       -2.37213164240540
H            2.86515811764529       -4.61537996349725       -3.66389091309766
H            2.52632740416071       -4.39466446927439       -1.94799615128972
H            6.08705705348565       -4.96096650041944       -0.85131943771105
H            4.46026511743459       -4.60213217688422       -0.25863810068268
H            4.34100905539699       -6.05351730614682       -2.25671614591206
H            5.27697564128722       -4.87919326064159       -3.18617344669639
C            3.50787566667080        2.53684893401800        0.18965518556429
C            4.62011417954545        3.22859332756689        0.99048765537060
C            2.61384495658065        3.59327801052354       -0.47069963749890
H            2.88806191872985        1.98719105719664        0.90468906422743
C            4.00917678138542        4.13329747071692        2.05714348906380
H            5.24403291608945        3.82391449520885        0.32216663393526
H            5.25577368163493        2.47252390220074        1.45810731133312
C            1.99975513120589        4.49686903186381        0.59480134589396
H            3.19908910134283        4.19727764615522       -1.16665170006115
H            1.82772774983852        3.09410767081363       -1.04291838527227
C            3.09159423308937        5.17390689239217        1.42040209051399
H            4.80407697349409        4.63215634023472        2.61623149411310
H            3.43435318018419        3.52592221283287        2.76118854854751
H            1.37108984504559        5.25162420917127        0.11672065704894
H            1.35914507548028        3.89951412248775        1.25014450804325
H            2.63846707135718        5.79485642086044        2.19640907777836
H            3.68021271091921        5.82628906197012        0.77111357165055
