113
 energy: -165.476830004785 gnorm: 0.000348142464 xtb: 6.6.1 (8d0f1dd)
C           -2.06948424841745        5.25214849575592       -2.84227926143931
C           -2.93629930644956        4.25135474360818       -2.47845477011520
C           -2.49497681567048        3.16967728355932       -1.69531038909837
C           -1.15215801651854        3.13720333881514       -1.24418763864075
C           -0.27808485553051        4.15972371745787       -1.66356902372976
C           -0.73034635480120        5.19447437300508       -2.44474534802533
H           -4.39001122471652        2.14826197401263       -1.64898272138609
H           -2.41335349185624        6.07700191669632       -3.44778023311037
H           -3.96738784788640        4.27212187839456       -2.79932449476913
C           -3.35266816953656        2.10307782691420       -1.34758122318043
C           -0.71406852143312        2.04591203626678       -0.43535103048962
H            0.76260222778345        4.11218574924369       -1.38033285571117
H           -0.04555248780704        5.96753860479289       -2.75914598107792
C           -1.54502142090844        0.92825117945782       -0.26016993675086
C           -2.90349521334049        0.99427613309560       -0.67488218567477
C            0.55992477329613        2.13465039589335        0.27360538944400
C            0.86788838449568        3.26883769920092        1.08832846244013
C            1.49962591200843        1.11681061374994        0.12529363123895
C            2.17868993468859        3.39456316071458        1.61738711016647
C           -0.09216048693613        4.23451622639525        1.44660785621078
C            2.81108425751463        1.25391609065308        0.64174095646851
C            2.49841398248945        4.50785630019977        2.41985524351991
C            3.13047162577933        2.38898688566122        1.34965551763492
C            0.24300939454141        5.30007425323469        2.24509296319251
H           -1.10773066518183        4.12764998278821        1.09811652714047
C            1.54844126033701        5.44854655074932        2.72431319139592
H            3.50441935611282        4.59590609426566        2.80257971330170
H            4.13496282302983        2.50868942875695        1.72854422035924
H           -0.50947499024196        6.02813078218985        2.50793540374919
H            1.79911549979313        6.29657646055979        3.34334074846173
O            1.18645186496406        0.03589684682973       -0.62407179905083
O           -1.14466585875543       -0.13804040572443        0.43997924667940
P            0.19367416555253       -1.08899941181786        0.08187967999042
O           -0.17080408077860       -2.03411036953506       -0.99227661813870
O            0.73133775904575       -1.50915911141595        1.39151499353047
C           -3.87433092383380       -0.08450771568504       -0.37133316564315
C           -4.52227190321182       -0.09796068460219        0.87865112416488
C           -4.25259108657403       -1.00278437127788       -1.36767841733948
C           -5.53126191130074       -1.02305459839560        1.10214151230716
C           -5.30690233867441       -1.87168790064236       -1.10638769521705
C           -5.95542934528350       -1.90984078210349        0.11857994428342
C            3.81069784797718        0.19143866841331        0.40625552248619
C            4.27120275556312       -0.05271546241278       -0.89783716481951
C            4.30285891216176       -0.56092844931670        1.48592882816349
C            5.18528097295139       -1.06924373074323       -1.10862201485305
C            5.22840637207296       -1.55881308246609        1.23413762555817
C            5.67291773191114       -1.83957379422562       -0.05551094388823
H           -5.61562902993486       -2.56073475641815       -1.87911582157901
H           -6.03584974591388       -1.02728225179629        2.05774586291042
H            5.55905062687859       -1.25262587954043       -2.10417840427817
H            5.59349927755108       -2.16121272673447        2.05136460522760
C           -4.21627976509320        0.78342961284945        2.07993837707709
H           -5.15263984730770        0.83758830779944        2.64977822919747
C           -3.62564860623756       -1.22305795841931       -2.73584180168208
H           -4.46604952019955       -1.31484137505595       -3.43848566777882
C            3.86266376671761       -0.31787733193350        2.91199871057289
H            3.10153136898539        0.46744138159623        2.92011414501037
C            3.86124028066628        0.82073343105607       -2.06278040905314
H            3.09632948540258        1.52665721275685       -1.72590918604923
C            5.04809932060936        0.14656152941599        3.76595617529527
H            4.70268406762963        0.42212099493750        4.75991452147730
H            5.78431010453688       -0.64667005163314        3.86851573268282
H            5.53587703763358        1.00878443637153        3.31596005946065
C            3.21860011098172       -1.57063389374261        3.51086547198921
H            2.86506804498641       -1.35968909859049        4.51828818616989
H            2.36720691247166       -1.87138128368799        2.90444339959108
H            3.92064784207263       -2.39929654269890        3.55945556222986
C            5.06376780000993        1.63614484079065       -2.55171923207755
H            5.84969606419886        0.98342911129552       -2.92307000423730
H            4.75968285639500        2.30224898462555       -3.35623475170473
H            5.46959473927887        2.23538834255376       -1.73889435955398
C            3.25720566233706       -0.00769275927265       -3.19877947847683
H            2.42931468856120       -0.60701491686827       -2.82348839781852
H            2.88051420540958        0.65016679750678       -3.97984794465862
H            3.99425869584918       -0.67414108751451       -3.63959318235902
C           -2.88773139734591       -2.57213389706805       -2.71392995853149
H           -2.56437058776604       -2.83556362785134       -3.71908237376679
H           -2.00610503165183       -2.50627879753505       -2.08052280643772
H           -3.51920074170051       -3.37162358653157       -2.33471348751870
C           -2.67766510374173       -0.17713883112639       -3.31219268421524
H           -3.14727343647040        0.79907993311424       -3.39897897933370
H           -1.77443331592357       -0.09179694221795       -2.71300489864359
H           -2.37909016836177       -0.49973645936737       -4.30901671781755
C           -3.79142728405023        2.22926706662729        1.82646243268258
H           -2.75267293894585        2.29059557189152        1.51796716739763
H           -4.41800236359322        2.69764580293108        1.07135580414924
H           -3.89630806259997        2.79053404299955        2.75395127942982
C           -3.18814301481155        0.07370609009065        2.97116110961526
H           -2.25019135706896       -0.07784717475130        2.44293700586081
H           -2.99210816913310        0.66547179000342        3.86334000759250
H           -3.55632825108674       -0.90340968519270        3.27771421911093
C            6.64956096578456       -2.90570082889211       -0.29689538815532
C            7.73162486111249       -3.08999029996633        0.56655523885807
C            6.51857298594582       -3.75478689393812       -1.39777469946593
C            8.65654424752179       -4.08889318848784        0.33192402191766
H            7.85750147390004       -2.42588790647358        1.40907275709643
C            7.43868037856939       -4.76068542284409       -1.62265894853812
H            5.67133353058332       -3.63974066915672       -2.05828731571893
C            8.51263082615312       -4.92954259659918       -0.76159456431535
H            9.49472902953881       -4.21371429010573        1.00218542216976
H            7.31848435112740       -5.41825600728437       -2.47152399208201
H            9.23361743644247       -5.71340035899175       -0.94160990838495
C           -7.05551695539050       -2.84806530543315        0.36925087758787
C           -8.02086924203838       -3.09208907807802       -0.60848006896025
C           -7.15870453888646       -3.51196993585073        1.59233951696382
C           -9.06174258094415       -3.96812202554411       -0.36620309082134
H           -7.96462444960497       -2.57021357626495       -1.55257693998173
C           -8.19537905325059       -4.39476924065285        1.82837998316377
H           -6.40423613765165       -3.35242844400430        2.34903084593321
C           -9.15208140868809       -4.62425278343878        0.85162685089701
H           -9.80762640937589       -4.14027428249655       -1.12875586373892
H           -8.25753337993904       -4.90863850337181        2.77689562688075
H           -9.96377739953901       -5.31188854874577        1.03868162178511
