119
 energy: -197.185628906580 gnorm: 0.000326134225 xtb: 6.6.1 (8d0f1dd)
C           -1.81120653821781        6.14249485974037       -2.88927443864950
C           -2.71586321598841        5.14753786742126       -2.60145339727305
C           -2.34101930308401        4.04360706905811       -1.81705915752717
C           -1.03020421309959        3.97968652594304       -1.28285719857240
C           -0.11546963843808        4.99407645210840       -1.62534523120133
C           -0.50208973525494        6.05401180502063       -2.41104455773548
H           -4.25056503247212        3.04892698310039       -1.91308124454532
H           -2.10480126863119        6.98533761622276       -3.49620930901411
H           -3.72427858472998        5.19357188785790       -2.98492699941972
C           -3.23419784620319        2.98002129628213       -1.55159061750648
C           -0.65416958223683        2.86028371430884       -0.47752398795680
H            0.90543439159406        4.92143516968419       -1.28219546032471
H            0.21371269437220        6.82120612401074       -2.66413667034019
C           -1.50766506455018        1.74077413157718       -0.39831138067817
C           -2.83896008104779        1.84590733446557       -0.88834970426763
C            0.55559197367827        2.92443086285284        0.32944146661938
C            0.81403040652806        4.04729468030612        1.18044139999749
C            1.50003206703019        1.89785089633144        0.23817106808709
C            2.08442213394346        4.15469147556209        1.80399716250824
C           -0.16440312619054        5.00961101921599        1.49069180861121
C            2.77299405266008        2.02351890266258        0.84195072835089
C            2.35283528217111        5.25001718499044        2.64783009540669
C            3.04751610900794        3.14630514099534        1.58870479720843
C            0.11959513279032        6.06012292368465        2.33099726517306
H           -1.15479023942144        4.91500485592837        1.07339331561652
C            1.38770989662645        6.19255404137114        2.90214687198842
H            3.32951535832170        5.32483893550591        3.10207667987778
H            4.02222407994433        3.25163111447708        2.04201702967447
H           -0.64647011521840        6.78743679585875        2.55275199265328
H            1.59964421838874        7.02806366741402        3.55161680638111
O            1.23943307932853        0.83342745835684       -0.54705653075504
O           -1.18026157664451        0.64736138958786        0.28189848384546
P            0.19853365887384       -0.29870955523475        0.07322238784910
O           -0.06428575478271       -1.25234557775157       -1.01993148923254
O            0.61023609364433       -0.68969355528711        1.43425939036129
C           -3.82624222494431        0.76133413097118       -0.66258762426562
C           -4.53303432166666        0.71799259818137        0.55129034246333
C           -4.13099542242803       -0.15013470268370       -1.68735909820150
C           -5.52121166344560       -0.24379988090647        0.71909865281052
C           -5.16675566079028       -1.06006747891101       -1.48375223571449
C           -5.86202731790209       -1.13535299765532       -0.28922737699391
C            3.78394454120014        0.96061134943190        0.65112702805834
C            4.33209562209091        0.74914892059873       -0.62238922822105
C            4.19446484888773        0.17904226461045        1.74177327383861
C            5.25639860522035       -0.26723552005312       -0.79579084059115
C            5.13315728381008       -0.81813222500316        1.52948675516394
C            5.66359717813494       -1.06446409439374        0.26831306131966
H           -5.41502587265630       -1.75095317138939       -2.27591563710256
H           -6.06879220999510       -0.27597485343919        1.64983578110312
H            5.69735358880006       -0.42845225107470       -1.76711395794778
H            5.44029315543577       -1.44169264587946        2.35435269304550
C           -4.31733213179251        1.59365172455257        1.77611402642819
H           -5.29318118103541        1.64341274270692        2.27539509154557
C           -3.43924770173653       -0.32817055886502       -3.02903976617628
H           -4.24542957667630       -0.44490423974721       -3.76689850403324
C            3.66146633692465        0.39258860044546        3.14059656740401
H            2.89882245980713        1.17635481137689        3.11471955208017
C            4.00549814874403        1.65163559667820       -1.79151080884270
H            3.22050616553775        2.35248949984156       -1.49212480665144
C            4.78829517826730        0.84277954758393        4.07766968026652
H            4.37835888226510        1.10341265935940        5.05088492203918
H            5.51542027070946        0.04682286884815        4.21652666783161
H            5.30559329815937        1.71074119955932        3.67435086673898
C            2.98430074387039       -0.87223194822637        3.67386506404019
H            2.57504074728898       -0.68267528036242        4.66422757972239
H            2.16793423896575       -1.15871412819753        3.01490408582271
H            3.68182948816537       -1.70293198086248        3.74447778076671
C            5.24097561760813        2.47419692282654       -2.17470513457000
H            6.04925851824157        1.82822805635194       -2.50751864861625
H            4.99529272033793        3.16188113097553       -2.98094151962706
H            5.59124881391163        3.05062314773996       -1.32068532943762
C            3.48043604768210        0.85237621815222       -2.98615392854112
H            2.63175974639717        0.24165486082469       -2.68276228222932
H            3.15502888219737        1.52976965832557       -3.77341102746169
H            4.24733245594230        0.19916077449892       -3.39428776044981
C           -2.65195133755838       -1.64915445472860       -2.99238375625497
H           -2.25626247043248       -1.87315817124356       -3.98090983632242
H           -1.81617539373532       -1.57209406261709       -2.30095803309520
H           -3.27545147724103       -2.48120084097667       -2.67555829631455
C           -2.51334958923101        0.76294048462558       -3.55484025258572
H           -3.01656029861973        1.72314438203248       -3.63229341690255
H           -1.62970191593417        0.86765064096356       -2.92997531621751
H           -2.17808356293805        0.47523975517677       -4.55051679794487
C           -3.87383603344603        3.04060693524520        1.56752410463023
H           -2.81544144997202        3.10277294884499        1.33459950361051
H           -4.44501750745100        3.51884027690521        0.77570425134647
H           -4.04360434468640        3.59186959418426        2.49129672472907
C           -3.35597753378315        0.87728515173245        2.73469477159471
H           -2.38181032196418        0.73005898096410        2.27496232040207
H           -3.22635061993454        1.46246788648239        3.64297062195523
H           -3.74346477855114       -0.10223217169772        3.00669102692515
C            6.65434231685684       -2.13027139890323        0.06554586349592
C            7.69418917024402       -2.31585692656360        0.97650188648134
C            6.57488336426205       -2.96976481378982       -1.04580721730212
C            8.63532001387834       -3.30817262836282        0.78422409511934
H            7.77710681779813       -1.66344702765411        1.83199226256159
C            7.50683308139666       -3.96920878148851       -1.24362384159204
H            5.76178279951987       -2.85230571318122       -1.74584060224092
C            8.54266931658668       -4.13293473078387       -0.33037751341769
H            9.44291968843195       -3.44181464202159        1.48807306445692
H            7.43927530662283       -4.62031554786400       -2.10227639007459
C           -6.92659359153417       -2.12883468272687       -0.08696832946412
C           -7.86221329555001       -2.38784907196243       -1.08735065506247
C           -7.01438474273887       -2.83034209457884        1.11527705673271
C           -8.86524188833227       -3.31805233454310       -0.89453156816115
H           -7.81464297615299       -1.84293068407024       -2.01753794056961
C           -8.00977442488991       -3.76568018522818        1.31644633528882
H           -6.28279178749464       -2.65716090342478        1.88954145123015
C           -8.94066016080556       -4.00399344756802        0.31144616344384
H           -9.59183321022614       -3.50917974582039       -1.66972442460165
H           -8.07199558159534       -4.30969849818030        2.24708059430668
C            9.53829201581241       -5.23255679516212       -0.54041072451254
C          -10.00442964943058       -5.03543786279520        0.53166586218047
F          -10.48214929635909       -5.03935313038305        1.79146906618259
F          -11.07344545105090       -4.88517040196359       -0.26955032157122
F           -9.55916236420016       -6.29530462921058        0.31197494724016
F           10.70878842687981       -5.02390818278912        0.08760447932753
F            9.09248509771030       -6.42917911046454       -0.08990167852153
F            9.84285162761188       -5.42884618483663       -1.83771487253296
