137
 energy: -203.872923211880 gnorm: 0.000399662580 xtb: 6.6.1 (8d0f1dd)
C           -1.66906807557234        6.38620761148291       -2.84059269472097
C           -2.55874440246551        5.38736011002450       -2.54514617221963
C           -2.16526577573565        4.27805060301261       -1.77162695881697
C           -0.84530543450536        4.21952666669263       -1.25879647804998
C            0.05562063410490        5.24573476354302       -1.60952222481346
C           -0.34853204694110        6.30293829722192       -2.38276386057883
H           -4.06753451146763        3.27514994229653       -1.85264838109821
H           -1.97544500563047        7.23175271105586       -3.43832645695581
H           -3.57393563124401        5.42645533696851       -2.91317310486238
C           -3.04625047722687        3.21064535408028       -1.50257877741421
C           -0.46055448153870        3.10892687564584       -0.45111559515359
H            1.08039985372937        5.18216055981084       -1.27512676211841
H            0.35708726857945        7.07691445446092       -2.64609757034845
C           -1.31049140176444        2.00910253188937       -0.33817800055546
C           -2.63549737222261        2.07942052870016       -0.84346044893687
C            0.80058165002010        3.14563472418155        0.29849477919098
C            1.11547408744456        4.24290081406102        1.15609478321367
C            1.69954134022103        2.09738715930006        0.17275238841070
C            2.40037891508385        4.29665347208657        1.75653822354046
C            0.18698933521991        5.25405760631196        1.47731213415847
C            2.97178928055481        2.13883874468876        0.79767092464640
C            2.73125570964998        5.38643649612512        2.58694666189207
C            3.31101739326297        3.24132906509452        1.53927565081644
C            0.53153370568204        6.29284989429991        2.30207031966563
H           -0.81258961482500        5.20137462912135        1.07380862626889
C            1.81792375358615        6.37189669891000        2.84926397750012
H            3.71862258667118        5.41896000227490        3.02453295816410
H            4.28974080839426        3.29678787336046        1.99367473992245
H           -0.19587259579689        7.05612883161521        2.53555416231529
H            2.07780313152684        7.20263173344031        3.48845119353329
O            1.39161040394329        1.05365133629881       -0.64057950365569
O           -0.94909699685556        0.92356895394337        0.38250797588718
P            0.32891206862261       -0.06576435599733       -0.04134227637516
O           -0.04405074054687       -0.91738144794461       -1.19358659640589
O            0.81517824573952       -0.64176356696390        1.23291578775875
C           -3.61239223815852        0.98541564987082       -0.61860677185849
C           -4.29765031497616        0.92170718467962        0.60859600700571
C           -3.92681691118493        0.07938959296727       -1.64492795408206
C           -5.25606267723969       -0.06541939530617        0.79746907590183
C           -4.91502419385333       -0.87301415404834       -1.41117257497982
C           -5.57345726478325       -0.97644203899560       -0.19798470313907
C            3.86292786470827        0.96842789636301        0.64510980203669
C            4.40631129594350        0.66944390519919       -0.61079828281360
C            4.09788669300542        0.12607155976383        1.74134774520831
C            5.11870927752598       -0.50680156798671       -0.77543208805853
C            4.79868319847620       -1.05062585631795        1.53473622149236
C            5.28425632496147       -1.39597925745805        0.27953022083629
H           -5.19278827118256       -1.55068722385794       -2.20605103335402
H           -5.76554435895900       -0.13619723738234        1.74870090762231
H            5.51455990615992       -0.76837621828006       -1.74538463729046
H            4.97487898283295       -1.72380768625245        2.36005455026099
C           -4.09739909072414        1.81110676717160        1.82742275871895
H           -5.06674408390006        1.81898038860935        2.34357382471540
C           -3.31046770682727       -0.04745074859396       -3.03281888379737
H           -4.16014251107377       -0.10254376551915       -3.72937114226933
C            3.62760377346781        0.46007589400275        3.13906951408545
H            2.96759895185374        1.33065968007339        3.08871783618539
C            4.28704955818092        1.62969546667506       -1.77325037646358
H            3.63383812258898        2.45708186237897       -1.47858525460932
C            4.83048938214040        0.81134370905336        4.02215213079901
H            4.49058517698359        1.11171383651420        5.01096645099213
H            5.49046095098539       -0.04647984149298        4.12976687584468
H            5.40221922753471        1.62932014737474        3.58864152748191
C            2.81703305700071       -0.68294424668227        3.75367961524529
H            2.39422979630121       -0.36633719894015        4.70536124979797
H            2.00200256476427       -0.94961825042392        3.08477891773542
H            3.42920882352042       -1.56419487680902        3.92889463512722
C            5.66542561834046        2.21309417152977       -2.10445928067607
H            6.35096963206507        1.42958596615514       -2.41860378625100
H            5.57905702127363        2.93908543516196       -2.91009060121119
H            6.08451862414466        2.71136721845991       -1.23219344906371
C            3.66484655453188        0.95960057522522       -3.00001366101866
H            2.71779553800058        0.49553914638380       -2.73011193792508
H            3.47751855681669        1.70043196305345       -3.77530670865969
H            4.31934364773159        0.19393528193666       -3.40961379186079
C           -2.54998099481709       -1.38058918004929       -3.11463871821857
H           -2.18832615789844       -1.53968964909395       -4.12889107962631
H           -1.69148624724168       -1.35873835653998       -2.44753129083005
H           -3.17597403184347       -2.22575487990519       -2.84016400944335
C           -2.38380880165334        1.04832611098822       -3.54865236638540
H           -2.87475913125761        2.01620394820539       -3.58952064552511
H           -1.48807702941546        1.12308713551143       -2.93739182931423
H           -2.07159052599517        0.78567511372415       -4.55909559684155
C           -3.73030046582491        3.27683771365362        1.59990543929971
H           -2.68390692943902        3.39085911350026        1.33581372090170
H           -4.34470151666186        3.72048278606930        0.82027203545561
H           -3.90222654388140        3.82655203998593        2.52459628103415
C           -3.09008665034852        1.15012632887208        2.77696697813646
H           -2.11870217266805        1.04394128991510        2.30138013392600
H           -2.97223273634180        1.75040218291086        3.67737229837430
H           -3.42872618176181        0.15622394782602        3.06393711011090
C            5.94157127030792       -2.69465130012689        0.06986814064749
C            5.18493552403355       -3.87520784814261        0.21602271762151
C            7.30483110019005       -2.75865537145163       -0.27927578870075
C            3.79789623639019       -3.85268981241854        0.50208316680135
C            5.81825427490529       -5.14406644840731        0.02840291360742
C            7.92216357674881       -4.03211449300734       -0.48353272610407
C            8.10569074435366       -1.59769624269946       -0.40251398377646
C            3.08924629850051       -5.01572863216993        0.63591895709098
H            3.28940288881445       -2.90480085345358        0.60181063099748
C            5.05128661557310       -6.32474594166462        0.18140838246884
C            7.16846815977784       -5.19386660839449       -0.31764627070503
C            9.29215719678678       -4.08214857460629       -0.83872834651342
H            7.65426179860745       -0.63558650297639       -0.21259615084908
C            9.42623940234037       -1.68542570575559       -0.74716868368156
C            3.72040235582253       -6.26246130095415        0.48399752335559
H            2.03192187480622       -4.97199616923055        0.85242173647285
H            5.54191169472150       -7.27791004886908        0.04577496550765
H            7.64047721184304       -6.15539053246615       -0.46352807716875
C           10.02458778870986       -2.93714688244889       -0.97469313381097
H            9.74650283258874       -5.04941183185160       -0.99761151662960
H           10.02118418084858       -0.78882643184059       -0.84182679945230
H            3.14140534156767       -7.16727358034378        0.59698898818669
H           11.06825766754848       -2.98435728839437       -1.24854270541837
C           -6.57728367373249       -2.03061512097847        0.02963125738971
C           -6.16358073402542       -3.37520999836306        0.08999198671936
C           -7.93499462921126       -1.69476799218085        0.18654419908794
C           -4.80115625597873       -3.75016835106794       -0.01095619672353
C           -7.13616943155076       -4.40418254718784        0.29197507124614
C           -8.89752974427156       -2.72994246929224        0.40342037491841
C           -8.39451020916106       -0.35732981742233        0.10692036647140
C           -4.42645323518860       -5.06360551350144        0.04725125059979
H           -4.05198147770029       -2.98042726853409       -0.12431522796400
C           -6.70827356141614       -5.75352961759148        0.34372461925382
C           -8.47830128919823       -4.05897565991218        0.44512673515131
C          -10.26067115490757       -2.37803779532912        0.56074868772283
H           -7.67597615992461        0.42554112112278       -0.08407618673630
C           -9.71861490117915       -0.05671191627411        0.26330948448956
C           -5.38752052856938       -6.07620901161567        0.21790600120946
H           -3.38218247858530       -5.32777304924926       -0.03346887479016
H           -7.45253959434259       -6.52319908657437        0.48962419831293
H           -9.20982628446380       -4.83940034504452        0.60136488257577
C          -10.66093058232861       -1.07428669538870        0.49809944999279
H          -10.97827216635652       -3.16811456297776        0.72904856504751
H          -10.05145254394382        0.96912152431601        0.20381666690305
H           -5.06890107134086       -7.10747019217470        0.25799531464736
H          -11.70216231815595       -0.81499162401470        0.62083860194984
