69
 energy: -105.541967246363 gnorm: 0.000168812071 xtb: 6.6.1 (8d0f1dd)
C            1.09592739824332       -0.67100332541917       -1.25429698088497
C            0.24578502426575       -0.14864292531155       -0.08887136099630
H            0.74328668414547       -0.28036010451643       -2.21198662970761
H            1.09229477831863       -1.75934278576609       -1.31792597066656
H            0.28843756147987       -0.85347593189596        0.74411475277310
H           -0.79764564537844        0.00070096915347       -0.35680880111006
C            0.93454475599959        1.17342116413639        0.33830050977900
C            0.43608836343393        2.34619218695283       -0.54201424410090
C           -0.88531845775765        2.78017388591995        0.10837123617020
H            0.32156622936853        2.05743929047788       -1.58460116501969
H            1.16050805815476        3.16172684429756       -0.48749759887869
H           -1.08119623615475        3.84529040771002       -0.01798010055168
H           -1.73483711949861        2.23452455706863       -0.30945870602683
C           -0.68221091830791        2.41623067544899        1.55025912730927
C            0.44722124714262        1.60845884082960        1.69533948931856
C            2.37703717906954        0.84714855020398        0.05810532366505
C            2.45864260227474       -0.13035895423008       -0.93650510435874
C            3.67725846737827       -0.49478397380113       -1.46927845390958
H            3.73894914704985       -1.24622378318048       -2.24219232992311
C            3.53397569355382        1.38998093412048        0.57902219560193
C            4.77873867855581        1.04532558339747        0.04127112154215
C            4.82580664078052        0.12192146447795       -0.99744490510667
H            5.78533973033763       -0.12453645464609       -1.42614839019531
C            0.88862487141611        1.26393868787221        2.95785732412539
C           -1.42735933632875        2.78567179808852        2.65022514510928
H           -2.30630295130752        3.40333916978297        2.54035910519073
C           -1.03728498714375        2.33761257159068        3.90315553775795
H           -1.64101465427178        2.56893114183055        4.76845066894755
C            0.13222116974886        1.60618792576828        4.08324390758468
O            2.11934633657532        0.61222236452946        3.10500975333169
O            3.46613457627873        2.26113690931964        1.67238057476114
P            3.37494077887672        1.61696775664397        3.11992495973845
O            4.55205870729243        0.55513152882303        3.20143089819329
H            4.95600276946083        0.55404811808752        4.06942871111866
O            3.37782787404003        2.65110658854916        4.15476065275284
C            6.02005341367438        1.67729070602915        0.54403066057039
C            7.00278428065156        0.91018465029209        1.17612147752644
C            6.20939726357872        3.05076409917682        0.35382339981087
C            8.15282394851508        1.53747598812632        1.63858867932381
C            7.37137775609748        3.64538639813720        0.82482131491595
C            8.33745918937202        2.89681795394425        1.47130799018883
H            8.91240394629823        0.94973139934995        2.13479896414621
H            7.51997383019407        4.70630560996086        0.68081230069679
H            9.23643206536311        3.37180919637778        1.83724978796796
C            0.51966853602888        1.13487679449793        5.43340909012256
C            0.90880803310576        2.03747656312908        6.42779410897724
C            0.44799082531001       -0.23481886606939        5.70884626928093
C            1.24410831871084        1.54771410445086        7.68337261268179
C            0.78604732676039       -0.69029911638383        6.97556008604227
C            1.18653715427329        0.19427761105433        7.95947964887700
H            1.55473185726599        2.23883835315916        8.45429281985049
H            0.73083856438123       -1.74796905018666        7.19232884536942
H            1.44908879115668       -0.17036989025558        8.94238986106976
C            6.85085221494032       -0.57185298195496        1.36082343385577
H            7.41098354059766       -0.90214728805101        2.23300770670521
H            5.80742553762830       -0.84759188892615        1.48633108226659
H            7.24276696118720       -1.10135499886557        0.49194395483507
C            5.18746735914646        3.88114493225437       -0.36580955357223
H            4.80256170546765        3.35615794331317       -1.23897797143179
H            4.34812569396563        4.09599301296415        0.29589147966265
H            5.62132826819095        4.82662675101278       -0.68392803475009
C           -0.00239215985766       -1.20942116930768        4.65949385968967
H           -0.90735121305067       -0.85648441441919        4.16623481782455
H            0.77012783337551       -1.32686624645701        3.89994050386368
H           -0.19867575629224       -2.18312339935167        5.10280692284249
C            1.00865752801942        3.50708666394218        6.15033098081989
H            1.77219890454681        3.67851262926787        5.39287967285142
H            0.06997512394031        3.90984103008748        5.77705611188025
H            1.28722834037214        4.04698524337293        7.05224686189800
