121
 energy: -164.830782124704 gnorm: 0.000332739080 xtb: 6.6.1 (8d0f1dd)
C            1.11638046293675       -0.61804739071107       -1.45437642479516
C            0.24725475824729       -0.16604698085124       -0.27382368591470
H            0.76227065182982       -0.19491139017247       -2.39755064008453
H            1.13705295249714       -1.70253315710899       -1.56565849385189
H            0.29807687754757       -0.90715029074487        0.52623168767389
H           -0.79685430570653       -0.02165571289986       -0.54259775632841
C            0.91221527051625        1.14335830257382        0.21942137324283
C            0.43983065528160        2.33943850173146       -0.64632654980913
C           -0.90182185958169        2.75898937024317       -0.03022831074198
H            0.36169886569323        2.08065743698297       -1.69995979212554
H            1.16100300031180        3.15295602746834       -0.54466747738937
H           -1.09442115736829        3.82672203239162       -0.13915601529708
H           -1.73696767515228        2.22271116036852       -0.48739607456092
C           -0.74289800476721        2.36231363220346        1.40823724098235
C            0.37632243093204        1.54315309658646        1.56798808485838
C            2.36561749787509        0.83895737874922       -0.04030334798861
C            2.46596187034756       -0.06546336011818       -1.10133879552986
C            3.68820274850363       -0.35032551288040       -1.67151706459083
H            3.76518634345984       -1.03959045170465       -2.49901545506941
C            3.51468365897566        1.35972547453656        0.52239493328437
C            4.76367677704456        1.11037817339197       -0.06187067536512
C            4.81916708859833        0.28093823968213       -1.17716341754295
H            5.77467515696646        0.11932731392722       -1.65106298683007
C            0.77772750322373        1.16529282526062        2.83340387943513
C           -1.51738998976815        2.71043128595120        2.49474276591313
H           -2.39257238193700        3.33129688505523        2.37379883974304
C           -1.15662141913249        2.24616773354185        3.75090292346632
H           -1.77432616380533        2.47712679413056        4.60519000625941
C            0.00549146023756        1.50738366508510        3.95026144010274
O            1.97131055697731        0.45993473624559        2.98354442491320
O            3.44212511389816        2.12906436770309        1.68910394307711
P            3.29647523905865        1.36685319212061        3.06832832175448
O            4.39230862408483        0.21684304289041        3.02463014478786
H            4.52442081930388       -0.15892280241846        3.89568242428425
O            3.37805571601308        2.28772207455942        4.20116635750343
C            5.99694627393380        1.77283529532147        0.43005255644007
C            7.06328394666275        1.01562230620648        0.93644871376196
C            6.11224477571806        3.16589854088185        0.31662836743097
C            8.22815652456107        1.66722597677304        1.32101308373129
C            7.28967722488154        3.77931308985274        0.72535881643415
C            8.34298417795321        3.03966269301657        1.22395776487413
H            9.06225429706736        1.09644055744918        1.69949794936185
H            7.39193460161706        4.85090146674984        0.64309481472531
C            0.41057145366073        1.06188707740081        5.30411023402878
C            0.76633815363733        1.99965426897191        6.28359510188262
C            0.42461008209036       -0.30916323125783        5.59554239968487
C            1.17828545763992        1.54036276467601        7.52815391245595
C            0.85125171454171       -0.72638524397147        6.84960187475664
C            1.24084187333431        0.18933174827616        7.80705227376528
H            1.45550190098550        2.24828439357839        8.29434603384158
H            0.87151390420059       -1.77944202953662        7.08783549472250
C            6.98436755657603       -0.48634689133112        1.07222853264612
C            7.88295943554456       -1.19495393021968        0.04895498123029
C            7.37950867180898       -0.96827001394257        2.47360172015527
H            5.95005922414984       -0.79596900748165        0.89668405034899
C            7.69237808775824       -2.70670924843676        0.14126669357380
H            8.92733876456882       -0.94358081966724        0.24647839292621
H            7.65018238029379       -0.85359957416384       -0.96148657922704
C            7.16255285134352       -2.47475787800352        2.58503355158170
H            8.43185155829516       -0.75043004382290        2.66402944867006
H            6.78892339414963       -0.43828272331937        3.22214963033408
C            8.00967864251196       -3.20833892839824        1.54775712097333
H            8.33851583994794       -3.20646276630308       -0.58454605577978
H            6.65672791500693       -2.95297535139370       -0.10656317684152
H            7.42876948607330       -2.81553994808990        3.58869641819129
H            6.10615063789244       -2.70254235559394        2.42229977231634
H            7.82650239759595       -4.28372302595365        1.60901748230803
H            9.06795481653382       -3.03812920446684        1.76146571549179
C            5.02553762108102        4.01969262423811       -0.29321860782060
C            4.54123063525929        5.10360320760466        0.67729796169134
C            5.50471765635395        4.66250649499974       -1.60208671734268
H            4.16714867497926        3.38971464233162       -0.53878250923807
C            3.42631979922962        5.93057198474512        0.04282465373641
H            5.36804121230872        5.76466214989288        0.94380618369995
H            4.18318289850688        4.63035760467916        1.59522642039493
C            4.38358802762101        5.48444810512645       -2.23216920902438
H            6.36229852008944        5.30902671492594       -1.40738636862776
H            5.82712984140530        3.87855508509663       -2.29240781307040
C            3.89966653082378        6.56093472232575       -1.26441632652053
H            3.10513041229013        6.70961686025402        0.73850251599569
H            2.56473412722215        5.28757226889532       -0.15413156201658
H            4.73904048820282        5.94685973114417       -3.15614985959579
H            3.55015684285198        4.82463200783004       -2.48765792540443
H            3.08660588256273        7.13259944703503       -1.71833027045111
H            4.71852022863099        7.25362678043000       -1.05496214432770
C            0.67698802706884        3.48688618818006        6.04149201057552
C           -0.46468511921013        4.09812991361871        6.86678879998868
C            1.98147036119216        4.22369383987937        6.36430609319792
H            0.46802279111414        3.65872211310778        4.98196765293307
C           -0.61508019085372        5.58275139111987        6.54844607488080
H           -0.25108394073343        3.97344341188967        7.93055554855208
H           -1.40082189935320        3.57482042617470        6.65730665248009
C            1.83786836709131        5.70811936592105        6.03947389516898
H            2.23021500829426        4.11329438550898        7.42131144216184
H            2.78907948388192        3.78602973309889        5.77707224528750
C            0.68776058072163        6.32536411569402        6.83144169751449
H           -1.42478554648375        6.00994432144881        7.14558995439477
H           -0.87700850861347        5.70047389471934        5.49375980941587
H            2.77096278632299        6.22725190774502        6.27166763413189
H            1.65050615475733        5.82585770058825        4.96908441139377
H            0.57905798169173        7.38106992314195        6.57106170997727
H            0.91250907129299        6.26646823418129        7.89947492557527
C           -0.10285562645952       -1.33581748857293        4.61947718847102
C            0.92452768151200       -2.42516559846051        4.29334599203272
C           -1.38590437113641       -1.97476981111692        5.17029997227108
H           -0.36452792993664       -0.83643826428818        3.68250212466971
C            0.34467042023754       -3.42521943452312        3.29611133244270
H            1.21324271621885       -2.95389825127792        5.20367605810720
H            1.82007735232649       -1.95895975351478        3.87597369029271
C           -1.96022250178381       -2.97320350754425        4.16937831132615
H           -1.17022167721914       -2.48664739762843        6.11009343226231
H           -2.11819068996352       -1.19051234179330        5.37896651552375
C           -0.93363316956931       -4.05427220756730        3.84328966464993
H            1.08169647929628       -4.20344784507695        3.08312745508853
H            0.12055408846054       -2.91288183734549        2.35716590496401
H           -2.86441675052090       -3.42872467615537        4.58019454168446
H           -2.23803240457903       -2.44737479197980        3.25214299385105
H           -1.34740519735015       -4.75328933835548        3.11255515251072
H           -0.70082347862282       -4.61795035462107        4.75010006826855
H            9.25498325660690        3.53169083974865        1.53085705347389
H            1.57491982924542       -0.14943289496905        8.77771065007229
