153
 energy: -200.822118334017 gnorm: 0.000241100409 xtb: 6.6.1 (8d0f1dd)
C            1.06895096027458       -0.65979650511397       -1.56443273134298
C            0.17095916882973       -0.19185962828641       -0.41249306728165
H            0.74420416805583       -0.24148157717164       -2.52029894851619
H            1.08424895489795       -1.74536628438616       -1.66631470753828
H            0.18736212410703       -0.93058482204723        0.39117937886821
H           -0.86293112861273       -0.03645020113493       -0.71291210140865
C            0.83422759911644        1.11260767163858        0.09811500372575
C            0.38038197521949        2.31573705831286       -0.76660718916416
C           -0.97265051445723        2.73319732372916       -0.17293939045639
H            0.32150033241724        2.06441506324864       -1.82349609636051
H            1.10114637642017        3.12695829068193       -0.64565138752325
H           -1.15442723023894        3.80448113359382       -0.26622204144564
H           -1.80127212844201        2.21289079232462       -0.65950146318682
C           -0.85187777853378        2.30960207654027        1.26190135829064
C            0.26928034383216        1.49789707405246        1.43852539992794
C            2.29063131052773        0.80262475454175       -0.13188229796106
C            2.41225086238505       -0.11324359683276       -1.18004130797337
C            3.64696901593718       -0.40991291855678       -1.71661892198978
H            3.74153373658910       -1.11165986893424       -2.53176006039268
C            3.42689764908378        1.33449500745160        0.44673375596206
C            4.68689058952019        1.08311155145498       -0.11164510708332
C            4.76602613258491        0.23098778209706       -1.20871549774080
H            5.73195214473924        0.06417905036550       -1.65959274755973
C            0.63906739551210        1.09510318166853        2.70637339639604
C           -1.66348119069064        2.62223234182816        2.33228908017612
H           -2.53912021795036        3.24046336573747        2.20135131586898
C           -1.34485036789322        2.11500195943205        3.58276001860170
H           -1.99818668137898        2.30513518070326        4.42053340464802
C           -0.18257044233697        1.38070439631862        3.80300335893342
O            1.85056869026440        0.42362018968762        2.87465402579504
O            3.32311247791319        2.11993956568106        1.60064204618739
P            3.14241936960312        1.37605242307662        2.98630609831230
O            4.27489517859857        0.26161487709287        3.00516220889915
H            4.39243841657161       -0.09177024672249        3.88746929122928
O            3.15094681011692        2.31948739661336        4.10366566662796
C            5.91071213588738        1.77768624943974        0.35747740796112
C            6.98670526637338        1.06249283159699        0.89794846322722
C            6.02455543183840        3.16096083242303        0.16068650382636
C            8.15607433521881        1.74008285709828        1.21549550220829
C            7.20873703047719        3.79690585735350        0.50191685177646
C            8.28986226760111        3.10569214225010        1.02482990043537
H            8.99397884356100        1.18855769051993        1.61607231316695
H            7.29403201662148        4.85994062154807        0.33889880554755
C            0.13110070879462        0.86836261779271        5.15688075924946
C            0.37416864566857        1.75244696734553        6.21698260524454
C            0.13056302971710       -0.51352455071672        5.38799950404296
C            0.62497583566971        1.23621285441376        7.47981753240970
C            0.39298127715552       -0.98335094542099        6.66761029293699
C            0.64438411270983       -0.12752842740662        7.72722396705074
H            0.80392260483708        1.92005519603949        8.29473907012415
H            0.38757833692400       -2.04833657667161        6.85069396003930
C            6.90815553787654       -0.42580831851750        1.14267391773692
C            7.80313932169339       -1.21303997234853        0.17597514919193
C            7.30199090945485       -0.80026886843824        2.57686086281870
H            5.87269161613956       -0.74455197956716        0.99066266250803
C            7.60996572076421       -2.71289404716193        0.38482571963086
H            8.84851989524536       -0.94933968679102        0.35065136109089
H            7.56711302066202       -0.95071628905310       -0.85704281401105
C            7.08081615217765       -2.29311446198943        2.80343211045274
H            8.35500747610798       -0.57063842571154        2.74918524316697
H            6.71342823831074       -0.21196423049743        3.28239968887326
C            7.92643482236441       -3.10588549885174        1.82563948019504
H            8.25465751140315       -3.26880521299834       -0.30041003209792
H            6.57367763292004       -2.97532878176824        0.15689226018089
H            7.34500452156894       -2.55746745640486        3.83050184200243
H            6.02412665270070       -2.53028671402685        2.65669661829091
H            7.74078837832106       -4.17307121230533        1.96889860421375
H            8.98509847886783       -2.92227257613083        2.02593484155583
C            9.58752632320684        3.80423699736463        1.34375629682488
C           10.24589352267708        4.33773360753489        0.06448774636357
C            9.39541409660263        4.94972588556065        2.34394793234920
H           10.26912899317536        3.07368011704430        1.79522206602886
C           11.57943132777452        5.00885967088647        0.38089283712572
H            9.58064229143854        5.05980654099493       -0.41312710757865
H           10.39814209404361        3.51282911009357       -0.63622526589275
C           10.73202109689782        5.61497197537566        2.66165371439312
H            8.71499564321622        5.69426705377756        1.92672638934240
H            8.94054981090640        4.56170373312632        3.25895964672131
C           11.38606561346793        6.14060287863013        1.38651756214042
H           12.02287412437752        5.39913237827975       -0.53843546478619
H           12.26926041047236        4.26968450074892        0.79611035970781
H           10.57713663139243        6.43565544649269        3.36631542800919
H           11.39643433148707        4.88872501231543        3.13687840276877
H           12.34999145488862        6.59733762895500        1.62317841619519
H           10.75046594426228        6.91258271405372        0.94535377541700
C            4.92375997142722        3.97888042148770       -0.47294098071693
C            4.45654335242049        5.11330468494528        0.44643434133949
C            5.37005659530244        4.54842850106483       -1.82615130408751
H            4.06166233599681        3.33516460506378       -0.66279810814617
C            3.32249810085947        5.89818793447030       -0.20738388103996
H            5.28544299099123        5.79182783804808        0.65686658060703
H            4.12174662011378        4.69013691554029        1.39713141282605
C            4.22938232707737        5.32617050909931       -2.47659456269969
H            6.22678405977841        5.21043408793335       -1.68812751397553
H            5.68342541657024        3.72816244167287       -2.47726792933087
C            3.75876158976631        6.45324005114665       -1.56101076004437
H            3.01387302146804        6.71540094621228        0.44925515191271
H            2.45989601158874        5.24123888677405       -0.34450530577854
H            4.56025891897170        5.73770600103532       -3.43327836750186
H            3.39570193591513        4.64737615964414       -2.67506610023907
H            2.92951604019293        6.99067868476077       -2.02741365478921
H            4.57566336064915        7.16395227540348       -1.41310978382189
C            0.35373785578162        3.25126355411283        6.03445570568359
C           -0.82154405816725        3.88413019372848        6.79213243919071
C            1.66180206216428        3.90873878620160        6.48951595613871
H            0.23883156783006        3.47440935951044        4.97014350453346
C           -0.87543819105305        5.38660990478034        6.53126321378003
H           -0.70488504906326        3.70620483157071        7.86320860385956
H           -1.76052568972745        3.41852181429787        6.48328504223263
C            1.61396811190496        5.41119264212564        6.22678295929479
H            1.82430859196534        3.73655716002898        7.55520604842686
H            2.49076589906617        3.46144812801633        5.94059835599072
C            0.43267312280455        6.05058460676179        6.95206758189920
H           -1.71088574852887        5.82889502950314        7.08015587004213
H           -1.04340603154612        5.56155210248312        5.46543867729232
H            2.54826085787402        5.87202203065822        6.55681970745238
H            1.52209261310802        5.58323399389520        5.15143850054025
H            0.39504772051919        7.12055552425278        6.73307052894790
H            0.56621080490687        5.93536336290478        8.03086579628319
C           -0.22677254443825       -1.50907710178912        4.30791836603090
C            0.88789358812668       -2.53488223822507        4.07333036701617
C           -1.53767929377109       -2.23130343283379        4.64786515321349
H           -0.38655326551061       -0.97399596293006        3.36838142136520
C            0.50035837820907       -3.50332293963134        2.95900055066530
H            1.07704446089607       -3.09863515858891        4.98880571358880
H            1.80714686969248       -2.00869140944537        3.80580834364590
C           -1.92262400423333       -3.19300612551832        3.52708724344016
H           -1.42462011805871       -2.78803334742982        5.57992237852882
H           -2.32915699208527       -1.49199101915705        4.79532598624761
C           -0.81072842912861       -4.21128635062112        3.28956469791673
H            1.29573200975190       -4.23927015764522        2.81673584293621
H            0.38806584942654       -2.95141138642113        2.02245068197893
H           -2.85093969676543       -3.70859212258558        3.78465224465208
H           -2.09907066791108       -2.62651431262659        2.60886282721635
H           -1.08773111034832       -4.88197024274958        2.47264253501059
H           -0.67745235865974       -4.81781823198264        4.18881846939651
C            0.89885557632865       -0.67469487360868        9.10925802541457
C            2.27803366636450       -0.26458010626902        9.63833178812859
C           -0.18829990396794       -0.22549866787027       10.09351607943133
H            0.87144090267542       -1.76959097671235        9.05451678298147
C            2.52247076384982       -0.86255228782816       11.02134738852593
H            2.34010002951156        0.82360388575285        9.69829982566773
H            3.04981671383181       -0.60172018491356        8.94155416983162
C            0.05670514927335       -0.82280755975650       11.47636167947188
H           -0.18928897065647        0.86375773389432       10.16517408572966
H           -1.16749153373517       -0.53471522996978        9.71904886974871
C            1.43439140440829       -0.42219189476996       11.99709314108276
H            3.50233596966645       -0.55009435287660       11.39050208491946
H            2.52516027371846       -1.95337706005238       10.95047005030002
H           -0.71694668985939       -0.48124526538163       12.16831720182621
H           -0.00573549910529       -1.91253480291806       11.41822168475254
H            1.60791827814458       -0.87350584583292       12.97692626609804
H            1.47431852723282        0.66332346506125       12.11779689319411
