97
 energy: -152.435417880758 gnorm: 0.000254586411 xtb: 6.6.1 (8d0f1dd)
C           -0.35730637379023       -0.85617169626233       -2.50852043412559
C           -1.13951712774632        0.07520469371872       -1.57441031001048
H           -0.47204945110811       -0.56131299107108       -3.55445837350609
H           -0.67061027023926       -1.89646691375737       -2.41974271109411
H           -1.38487826941059       -0.45116599300844       -0.64965449823731
H           -2.06303973275039        0.44403411140835       -2.01483861385697
C           -0.14922118923283        1.22191167234688       -1.24900588849757
C           -0.19488789220037        2.30059333906528       -2.35971132810968
C           -1.38554381436917        3.19180498192987       -1.98074676206463
H           -0.28834248337101        1.86512301629030       -3.35211781568973
H            0.72784207592299        2.88370355726448       -2.32336134289542
H           -1.25538247030557        4.22336645489121       -2.30830554390177
H           -2.31702087388286        2.81955033086594       -2.41415281593749
C           -1.41759469112028        3.07792717952239       -0.48535508975787
C           -0.61761143105720        2.01671902040504       -0.05838837775453
C            1.16267182815328        0.48025289856379       -1.25098774166982
C            1.05897340896411       -0.65507061516171       -2.05864229548186
C            2.16156359563011       -1.44289104043264       -2.31441205189129
H            2.08226173918466       -2.31457551765178       -2.94659195956438
C            2.36256257907905        0.77645685061658       -0.63339854605654
C            3.49092760759359       -0.01991978033670       -0.86879023581194
C            3.37291979060518       -1.10428644490589       -1.73557255949910
H            4.24956945225963       -1.69956220278821       -1.94154102850054
C           -0.40178673922300        1.81097879621883        1.29050694855925
C           -2.06761902026258        3.87920312101082        0.43003456986282
H           -2.69317535130502        4.69643637888584        0.10336899291513
C           -1.89231943670724        3.62836283887048        1.78067571579574
H           -2.40888491340881        4.23626369571031        2.50800375106276
C           -1.03787847972750        2.62536229052922        2.23548937909317
O            0.54117677458799        0.85940656514963        1.69394699522756
O            2.43217825718249        1.82696207628637        0.29067574554769
P            2.02406044908934        1.48260439009719        1.78493479598641
O            2.84912798000298        0.17553045926117        2.15931949752252
H            2.99558425774121        0.12248397983902        3.10424737140881
O            2.19522814800037        2.62756706353464        2.67873827430999
C            4.77626318928903        0.24762727706637       -0.20313289930669
C            5.51376725157447       -0.81552151815965        0.31039708407961
C            5.28107606082124        1.53843844604604       -0.08941622529166
C            6.73761118607248       -0.60291346390251        0.93466108751908
H            5.11165098153944       -1.81636972193036        0.25681943608972
C            6.49348861477939        1.77355283022262        0.55135153568597
H            4.72295459426092        2.37049861399469       -0.49142886544706
C            7.21382589213922        0.69796088245679        1.05978994098127
H            8.17545765964572        0.87230396209597        1.52066398554724
C           -0.79886709498826        2.46030977754838        3.67736403197151
C           -0.63728507550205        3.58719981885023        4.47760619985930
C           -0.74396274359144        1.20104272188856        4.26475794541319
C           -0.41926173673174        3.46955335755999        5.84535118398249
H           -0.63728305220187        4.56617569475174        4.02219640768649
C           -0.50227602565567        1.06166051826665        5.62773546757456
H           -0.87875963861157        0.31980804094648        3.65530408812026
C           -0.34290246066247        2.20066373656561        6.40954026131197
H           -0.19753494183986        2.09864526868243        7.47546057163800
C            7.01221712212786        3.14484576286352        0.68690764215880
C            7.55552302312166        3.57669366303410        1.89460803973643
C            6.97194709610021        4.03330348808249       -0.38469080393671
C            8.04389593586273        4.86354569690945        2.02723478186906
H            7.57419148152170        2.90404721169564        2.74030186239518
C            7.46650243824981        5.31807653154429       -0.25246222278340
H            6.56714136778393        3.70645374047369       -1.33203357282046
C            8.00318288952455        5.73772524709014        0.95357989827715
H            8.45649240995632        5.18685537722757        2.97244832539128
H            7.43462874948959        5.99519793430098       -1.09431951388395
H            8.38720190283912        6.74231778405170        1.05689819672671
C            7.52381165980899       -1.74090701908044        1.44019941930758
C            7.66189334310550       -2.89682067497447        0.67476290813423
C            8.15243884694957       -1.68188148631228        2.68159045407186
C            8.41071040586519       -3.96328855909453        1.13739300812906
H            7.19552572523874       -2.94857913932220       -0.29863327692130
C            8.89616967234250       -2.75170413772480        3.14576788671650
H            8.04052662253203       -0.79789159411566        3.29318775851169
C            9.02943970199246       -3.89480791194911        2.37486554328884
H            8.51494891948317       -4.85073815028745        0.52933875674188
H            9.37418298695050       -2.69400352969733        4.11344313510577
H            9.61374691602523       -4.72851848144026        2.73653317643553
C           -0.41731416472368       -0.27567335893654        6.23890209564098
C            0.58726056201966       -0.56691724322793        7.15930258134288
C           -1.33394207417621       -1.27208907741250        5.91205098056204
C            0.67218507014561       -1.82030895678210        7.73744168456931
H            1.31603501914523        0.19176947593548        7.40754103982057
C           -1.25090809319719       -2.52363476945683        6.49501564038619
H           -2.12818277088097       -1.05501778863761        5.21202870534367
C           -0.24778003760481       -2.80237087333062        7.40872962222260
H            1.45966529668822       -2.03235524806179        8.44678739672185
H           -1.97367352724009       -3.28484761408287        6.23753699966441
H           -0.18314828644452       -3.78039105339424        7.86318592008529
C           -0.28598587658085        4.67281036362952        6.68332586738874
C           -1.14308919952982        5.75605398061744        6.50082900425858
C            0.68653011224094        4.75064971475849        7.67718680789985
C           -1.03192162431164        6.88480323473485        7.29169568909182
H           -1.91406399064425        5.70195402965039        5.74551326809731
C            0.79998354230953        5.88235151404125        8.46430621123134
H            1.37124271451343        3.92647509272238        7.81749054303508
C           -0.05954521740187        6.95205336381419        8.27592613761030
H           -1.70779047348255        7.71484416073219        7.14159767872162
H            1.56344140995640        5.93116380982584        9.22790238234930
H            0.02814179919729        7.83463267968493        8.89292539046218
