81
 energy: -131.258465647352 gnorm: 0.000244644180 xtb: 6.6.1 (8d0f1dd)
C           -0.54975546044164       -0.84407688224540       -2.62214594060000
C           -1.30266424090455        0.10150401490205       -1.67816160410900
H           -0.71291477094512       -0.57697986967714       -3.66910343051160
H           -0.84635021626416       -1.88523550258062       -2.49422935973189
H           -1.51090624361292       -0.40745586089509       -0.73473283511865
H           -2.24430671166140        0.45606779003880       -2.09114568784718
C           -0.31013707041969        1.26168397496827       -1.41108932715797
C           -0.41250518985259        2.32808745943625       -2.52969635129823
C           -1.58882549510098        3.21926802093829       -2.10717436182293
H           -0.54949006139920        1.88068392214585       -3.51175557245566
H            0.50855525614395        2.91476405149489       -2.54303631139341
H           -1.47125983340078        4.25020183417061       -2.44165543868943
H           -2.53591329072755        2.84625644225457       -2.50456999294519
C           -1.56730453836960        3.10948126530150       -0.61130508686165
C           -0.73891643011477        2.06084171031290       -0.20979502581672
C            1.00802652625423        0.53526580666690       -1.46155494723363
C            0.88259460618074       -0.61600877921305       -2.24228226994658
C            1.98580692512143       -1.38727148687755       -2.54204996424256
H            1.89056612777231       -2.27466762104128       -3.14966687516047
C            2.23267471285050        0.86863428279851       -0.91626954219336
C            3.36822028177426        0.10491459445142       -1.21754632943999
C            3.22195114647450       -1.00303723020848       -2.05120065204347
H            4.10047947697715       -1.57491144014494       -2.30918904537026
C           -0.47976738146304        1.85317018554209        1.13084727630245
C           -2.20183823963185        3.89776851402841        0.32607507711527
H           -2.84583357655705        4.70928709236158        0.02180586072679
C           -1.99957768806729        3.63101468629119        1.66974189108043
H           -2.52047341230827        4.21533478456617        2.41323748136999
C           -1.12185122540520        2.63555707197653        2.09890938600720
O            0.50796431199120        0.93010253258764        1.49612169174648
O            2.32059249950789        1.93022776623245       -0.00552675533983
P            1.97444401802468        1.59837551672271        1.50761352629615
O            2.85876681921039        0.32535049910690        1.86376947097560
H            3.05026343194025        0.29184302925571        2.80167232914698
O            2.14093238242403        2.76340780849525        2.37644346948076
C           -0.91262164543444        2.41728522184835        3.53728377073147
C           -0.85910279861017        1.11784024117153        4.06570404601557
C           -0.82260951443147        3.49580497383655        4.39724374488639
C           -0.71930822601431        0.93058013693152        5.41487956408378
H           -0.94573382295746        0.26944239111681        3.40333634786875
C           -0.70555739432464        3.33647970457812        5.78424912029187
H           -0.83051725446406        4.48521392702002        3.96937703870245
C           -0.64941006146152        2.01920764259259        6.29946726697440
H           -0.67812239017491       -0.07068716358713        5.82158748888896
C           -0.66864501632991        4.45103510877057        6.70286962807554
C           -0.53854570274912        1.80863987023184        7.70290466768935
C           -0.57807540510420        4.19436631039466        8.09224432851067
C           -0.73894160652112        5.79071571361815        6.28720337243237
C           -0.50589495844095        2.85160029602294        8.56283472350879
H           -0.48943891434414        0.79065687778063        8.06394319376388
C           -0.56624033420021        5.26644591090954        8.99996386038000
C           -0.72736555896617        6.82329499623792        7.19313411125826
H           -0.80283458498565        6.02694872259428        5.23665780144840
H           -0.42937292239154        2.68857921571045        9.62890739799003
H           -0.49912798746087        5.04950621246371       10.05711441684476
C           -0.64234209173991        6.56342427996176        8.56167751168447
H           -0.78515644068734        7.84486010476361        6.84526213303874
H           -0.63683169800740        7.38225517216894        9.26659750534634
C            4.70203837181233        0.45197533816771       -0.70346229278367
C            5.14696718327959        1.78330631654742       -0.69810252052425
C            5.55956686187686       -0.54513004680499       -0.27658677567031
C            6.41580093352682        2.08001582829775       -0.27732264365130
H            4.48971271738059        2.56787482524180       -1.04139556731131
C            6.87136044316165       -0.27560023668698        0.13550561880957
H            5.18938320263815       -1.55767172653745       -0.25943828523639
C            7.30350383595219        1.07241235112692        0.13439877328361
H            6.75791753059850        3.10567309514505       -0.27377762297922
C            7.79981973670064       -1.31059932648598        0.52842895643181
C            8.63212114443646        1.39289792804009        0.53257502986999
C            9.11780757089030       -0.94767049017072        0.89644127507133
C            7.46668746473973       -2.67496177839718        0.54598394397432
C            9.50283193506595        0.42403964082651        0.89537602661930
H            8.92879051272703        2.43249452907940        0.52869586170911
C           10.04072351897587       -1.94414917998978        1.25511949252703
C            8.38613664330527       -3.63240052032398        0.89963871139459
H            6.47114498090375       -2.99142917208881        0.27697227817566
H           10.51386629139916        0.66964328744384        1.18913976876524
H           11.04342911892157       -1.64685123230436        1.52937128756364
C            9.68555853218881       -3.26854619561968        1.25551910690239
H            8.10334520552356       -4.67546525897261        0.90132545070433
H           10.40303514783191       -4.02880382653827        1.52859633294302
