69
 energy: -105.541937408791 gnorm: 0.000181582269 xtb: 6.6.1 (8d0f1dd)
C            1.03698340578373       -0.67287573027948       -1.28417225123730
C            0.18358935892830       -0.11008850785746       -0.14009907441618
H            0.70443870793319       -0.29405548316582       -2.25373335357944
H            1.01142387471515       -1.76196703736657       -1.32655595102012
H            0.20112466073196       -0.79921998849268        0.70682609681018
H           -0.85309490589968        0.05567080841882       -0.42410805169510
C            0.89478016807543        1.20540830487130        0.27014363142062
C            0.43325866482137        2.37093824067880       -0.63945427995424
C           -0.88585813585931        2.84730093384257       -0.01467858643240
H            0.32486742136046        2.06378618714837       -1.67741513736296
H            1.17510917742882        3.17108803250229       -0.59215349630660
H           -1.05572967791453        3.91389320441235       -0.16413148340189
H           -1.74231119977494        2.31283445289215       -0.43280858760805
C           -0.70918899386640        2.50718002780077        1.43643307860760
C            0.39978390494960        1.67746734332161        1.61189899860568
C            2.33336432612743        0.84371860997903        0.01485728249607
C            2.40669948917597       -0.15426218036807       -0.95983374394612
C            3.62396557521063       -0.55378780441029       -1.47009539723190
H            3.67976602950416       -1.32189760884485       -2.22690814024890
C            3.49476290240983        1.37316396763002        0.53953034023975
C            4.73848852866144        0.99415533539407        0.02300689710352
C            4.77907186456696        0.04919696532139       -0.99652749435289
H            5.73842506736667       -0.22524691760731       -1.40830242307146
C            0.81711909639710        1.34748775232068        2.88650047899910
C           -1.46042453491143        2.91382369702776        2.51900867898260
H           -2.32351892562893        3.54896886619465        2.38572911543148
C           -1.09754666358697        2.48012107549914        3.78508433444117
H           -1.70746645996167        2.74023805769024        4.63784806862022
C            0.05291538466473        1.72659856418449        3.99461535374811
O            2.03102825381813        0.67183941491481        3.06216661114700
O            3.43146882453266        2.26497444736781        1.61648319535891
P            3.30980471662179        1.64726549103701        3.07319184709686
O            4.46123363383616        0.56019792991253        3.18384564350455
H            4.85075507795611        0.55840439371699        4.05839925593523
O            3.32647281998708        2.69772932309836        4.09140470389249
C            5.98659836409770        1.61333539669880        0.52486788312975
C            6.95035726628104        0.84161833924066        1.17994001131066
C            6.20306266751407        2.97885232353416        0.30757020360909
C            8.10956102408807        1.45652225740854        1.63639415296062
C            7.37333783877781        3.56108086840151        0.77340171107406
C            8.32137976144489        2.80807603407301        1.44121782119624
H            8.85468941132719        0.86479045498050        2.14953387692430
H            7.54293991691591        4.61576888888660        0.60826610031219
H            9.22719761142350        3.27355194158066        1.80251835017732
C            0.40837325776172        1.27017167630169        5.35862331791088
C            0.80586584399502        2.17996186812961        6.34297352095001
C            0.29523733426270       -0.09191671008668        5.65701909061373
C            1.10739446225591        1.70425442885939        7.61250661871295
C            0.60006579825944       -0.53320977738675        6.93707409602593
C            1.00823406236252        0.35817033297568        7.91170424518685
H            1.42408115850526        2.40075648142608        8.37610381864974
H            0.51249534504445       -1.58489330235272        7.17161547404635
H            1.24424361346932        0.00467956142491        8.90536577299281
C           -0.16387013523466       -1.07286922258588        4.61740607267548
H           -1.05085801418774       -0.70508301457145        4.10280754207948
H            0.61767689897674       -1.22408293386594        3.87319863804150
H           -0.39331468447162       -2.03299270874525        5.07417989988899
C            0.95158644353438        3.64077671372284        6.04094393204878
H            1.74757303457938        3.77800181658847        5.31021979389945
H            0.03843023559055        4.05775017531041        5.62283483744615
H            1.20871007679835        4.19258295255376        6.94203156169575
C            5.20134084636325        3.81346191349239       -0.43522365870290
H            4.81026025184161        3.27750866639403       -1.29891679268848
H            4.36324180874466        4.05903072120251        0.21738517473888
H            5.65533534726605        4.74314876358117       -0.77126742796725
C            6.76984239275832       -0.63296700884002        1.39576144419147
H            5.71933932778475       -0.89011133386976        1.49926741073164
H            7.17744016735346       -1.18909503115768        0.55097568078953
H            7.30098982635221       -0.95018170210049        2.29070366477404
