75
 energy: -111.886830673277 gnorm: 0.000163463657 xtb: 6.6.1 (8d0f1dd)
C            1.02309161165809       -0.66128806184156       -1.35147508468328
C            0.16189830056468       -0.12229685948071       -0.20203083489175
H            0.68275846884005       -0.28091313432393       -2.31774053316098
H            1.01623464655214       -1.75035095210407       -1.40204529220821
H            0.19191566833888       -0.81773742629680        0.63945008539105
H           -0.87782729058018        0.02841948897519       -0.48338800606678
C            0.85127212624282        1.20160274674749        0.21869420676986
C            0.36684112458549        2.36673872466901       -0.67911823348465
C           -0.96188000972619        2.80980435926698       -0.05003338911192
H            0.26512244844684        2.06816499330294       -1.72031508182991
H            1.09250930038058        3.18110253110789       -0.62314634882704
H           -1.15225122371901        3.87467090580561       -0.18704865464507
H           -1.80758754423422        2.26403901719689       -0.47542661862553
C           -0.77933503985290        2.45687175376488        1.39745874563878
C            0.34793712373692        1.65060762163182        1.56523843379522
C            2.29555267785816        0.86680885971260       -0.04143906763912
C            2.38411563185462       -0.12210801214142       -1.02389522945164
C            3.60715612347737       -0.49795916848208       -1.53819183507138
H            3.67442129333299       -1.25765176128947       -2.30262377647174
C            3.44880728808326        1.40987865088680        0.48790396294680
C            4.69859544253991        1.05117484710592       -0.02847310778476
C            4.75266099910569        0.11705742950941       -1.05758438155772
H            5.71631697452985       -0.13966914445845       -1.47085943470589
C            0.77216137358348        1.31710206009532        2.83663302127327
C           -1.54055724599333        2.83432293029750        2.48359758530727
H           -2.41862689701294        3.44996267287743        2.35614347533876
C           -1.16771954908846        2.39663877949393        3.74526810568568
H           -1.78376682953461        2.63419902933535        4.60014503930392
C            0.00003380295249        1.66818408958100        3.94855793197777
O            2.00151964751391        0.66782017893996        3.00625735477783
O            3.36997190282476        2.29547614887756        1.56897426811572
P            3.25651390975391        1.67242558977478        3.02452673692946
O            4.43074365253001        0.61024004885788        3.14168408702032
H            4.83989465096329        0.64476878103444        4.00651957504710
O            3.24634151314568        2.72285500878785        4.04303865881683
C            5.94092406661143        1.67107734037516        0.48481690403765
C            6.90806952745151        0.89738646803927        1.13030042362702
C            6.15791229336557        3.03998164452844        0.28977904554138
C            8.06517901190232        1.50955544336320        1.59447367842367
C            7.32630845380673        3.61495618440760        0.76271581555192
C            8.29035165175156        2.86586948648385        1.42425635561034
H            8.80836435754416        0.90773730927764        2.09981344390687
H            7.49266346071513        4.67277403610314        0.61090084699332
C            0.36772036785149        1.21320430732074        5.30900032267844
C            0.73530155819714        2.12703271809341        6.30154005924977
C            0.29986166206444       -0.15111698221980        5.60505035609967
C            1.04680625166187        1.65458942969177        7.56752219227881
C            0.61415517850170       -0.58606378753800        6.88454913266533
C            0.99318480666092        0.30277880780640        7.87827155876500
H            1.33980696227109        2.35946525111589        8.33372510830080
H            0.55810218669695       -1.64251569280535        7.10968780654817
C           -0.12245476408903       -1.14602348902589        4.56265199099575
H           -1.01813380266202       -0.80637173972083        4.04368758666801
H            0.66718745229227       -1.27159207187303        3.82213702077836
H           -0.32362406400032       -2.11350371750458        5.01733807537101
C            0.83532978230137        3.59404560821512        6.00822169998419
H            1.58687206355067        3.75739926775737        5.23724132359048
H           -0.10898798205617        3.99516530467836        5.64681093531513
H            1.12853053859736        4.14213655478228        6.90051836907820
C            5.15590111908061        3.88500165765035       -0.44133011095039
H            4.78368977776532        3.36989964291708       -1.32601391072981
H            4.30573162218200        4.10052562554888        0.20605176145026
H            5.60246736916397        4.82970041145944       -0.74378281722618
C            6.73220477920234       -0.58040169710936        1.33021122164782
H            5.68461995782092       -0.83617508796943        1.46410653092273
H            7.10915283982637       -1.12578339227105        0.46455944734078
H            7.29081672087002       -0.91226590083171        2.20277033000011
C            1.31243879799198       -0.17281679519983        9.26466553973461
H            2.19231830398369        0.33673383588015        9.65327609008358
H            0.47869034549501        0.04293770528473        9.93395433970579
H            1.49139223114005       -1.24539851969682        9.27747400435088
C            9.54679492770899        3.51802530494720        1.91960649125222
H           10.14416703104382        2.82203826770351        2.50348890098784
H           10.14623933489605        3.86731603675046        1.07870859645859
H            9.30880774717020        4.38133249637266        2.53968716899810
