111
 energy: -149.881201770814 gnorm: 0.000658308705 xtb: 6.6.1 (8d0f1dd)
C            0.91604575846668       -0.61496983709637       -1.50755844045445
C            0.09047537377440       -0.15203608439597       -0.30029288398498
H            0.53914939680121       -0.18560948716268       -2.43902011711753
H            0.91795776242677       -1.69951650875505       -1.61994868013086
H            0.15434920527370       -0.89483023415964        0.49775305081317
H           -0.95901042035410        0.00712239412620       -0.53770845003559
C            0.78790045546035        1.14882824414153        0.17209683622124
C            0.29980529178919        2.35320653834914       -0.67302047396530
C           -1.02188740480277        2.77493112184885       -0.01598110484003
H            0.18990723430397        2.10073321090670       -1.72538360905080
H            1.02808732333045        3.16262435988118       -0.58643116071075
H           -1.21415606233406        3.84358989039742       -0.11565537773670
H           -1.87206482973840        2.24267813373389       -0.44952188974080
C           -0.82018307851725        2.37390414464485        1.41593411594686
C            0.30071147566020        1.55043306199091        1.53863867147823
C            2.22775655598181        0.82623386020850       -0.13490038534241
C            2.28357536329593       -0.08248848053156       -1.19572066043871
C            3.48395468833489       -0.38996152680091       -1.79925964888983
H            3.52434482433767       -1.08119614649888       -2.62774034951133
C            3.40090307190430        1.33048508400190        0.39031252889805
C            4.62964491038806        1.05151845142170       -0.22313042232408
C            4.64055759548340        0.21849400985880       -1.33618529044240
H            5.57966335938014        0.03663456532136       -1.83490423584813
C            0.74346925136154        1.17396126172273        2.79040850326074
C           -1.55783637896058        2.72372700790019        2.52707431049610
H           -2.43492474761687        3.34685734625236        2.43461935563663
C           -1.15686721700417        2.25931120309859        3.77083511776742
H           -1.74545396836765        2.49237251926052        4.64490574450163
C            0.01019674777370        1.51911709739293        3.93246316300379
O            1.93934782096199        0.46517957486447        2.90323167279730
O            3.37556721975393        2.11339397567683        1.55034967608296
P            3.27379257399123        1.35976320755852        2.93855541203967
O            4.35487701155445        0.19817862485721        2.86256273100086
H            4.55589727766891       -0.13758652555936        3.73650744868586
O            3.40926244926487        2.28413393305603        4.06386195863513
C            5.88096054324403        1.69306090480132        0.24852358844071
C            6.92860724678694        0.93437102536058        0.78441747102543
C            6.02868759155253        3.07992684412404        0.10906097227335
C            8.09053361286215        1.57932090695219        1.18614632171338
C            7.20239498881438        3.68281789096043        0.53439428984538
C            8.24481738047728        2.95139215723598        1.08032092198807
H            8.90207594955423        0.99645167455467        1.59618609482603
H            7.30773445627121        4.75142950609887        0.42933453862945
C            0.46076753306132        1.07852334587247        5.27257204292131
C            0.84086204199905        2.01499099749670        6.24219414948172
C            0.49907891787521       -0.28999710598751        5.57175270272385
C            1.29328634647710        1.55851257686669        7.47249909070606
C            0.96507621068997       -0.69950980446682        6.81157060050999
C            1.38116955275692        0.20909984422585        7.77166814776782
H            1.58886573234496        2.27621492370584        8.22383359186679
H            0.99532272677148       -1.75444884083214        7.03689354635686
C           -0.04206785959541       -1.33410767442999        4.61720409478892
H           -0.33433165207017       -0.84450388777037        3.68424111003545
C            0.74735071766001        3.50701442825231        6.00871890517691
H            0.49443299075679        3.68232028321649        4.95930291121595
C            4.97389541993580        3.94077585643473       -0.55259856752176
H            4.11822906050340        3.31453083261776       -0.81849645477825
C            6.84221340706877       -0.56920015790558        0.93433550635550
H            5.80178537397643       -0.87097726198406        0.78371099624578
C            4.47388730215928        5.03496062554638        0.39414171432770
H            4.10665404373200        4.59116958697371        1.31783276217483
H            5.26724219531083        5.73625070415644        0.64158983734188
H            3.66125196750273        5.59066912108632       -0.07095909166975
C            5.52150460518600        4.54307908732368       -1.85119871553274
H            6.35644407168536        5.21049435894620       -1.65273426485707
H            5.86471943713882        3.75255559479195       -2.51604745848644
H            4.74305172045053        5.10905788499253       -2.35916218392395
C            7.27088111576253       -1.02644671114580        2.33359373890699
H            6.93685003372659       -2.04690437234367        2.50898236828808
H            8.35300947234248       -1.00481726490765        2.43958283713093
H            6.83818539950386       -0.38162733165213        3.09386626189254
C            7.71470959265209       -1.26384942603689       -0.11728431771672
H            7.40713602184706       -0.99428134067159       -1.12420530392421
H            8.75711894573274       -0.97695771360370        0.00489101116370
H            7.63849553000581       -2.34422355588609       -0.01163291201111
C            2.07863747103741        4.21322763972418        6.27502902641672
H            2.36226252461166        4.15270710299477        7.32279818856205
H            2.86047818204019        3.75840990544718        5.67311442317254
H            1.99968361027704        5.26468670447082        6.00436615919034
C           -0.35865556327535        4.10637625308236        6.88520518524450
H           -0.48035456834083        5.16473080991030        6.66336283398245
H           -1.30817272571135        3.60468384066388        6.71064910510848
H           -0.11059510068594        4.00214069563385        7.93906676736572
C            1.00296686576947       -2.39894987640890        4.27707231983178
H            1.88062830321120       -1.93212138741390        3.83542462696146
H            1.31073941608372       -2.94957114571464        5.16261784118010
H            0.59203334070368       -3.10865602665950        3.56096284825708
C           -1.30065896016184       -1.97397702106107        5.21424872111842
H           -1.06996798100588       -2.50526115545432        6.13439560964927
H           -2.04122106476602       -1.20834493203077        5.43745588320857
H           -1.73482506137213       -2.67971124436688        4.50858007131789
C            1.89775404680336       -0.24976520210322        9.11490460888315
H            2.14802835089461        0.64019930966461        9.70403318301551
C            3.17279059032375       -1.08079963296926        8.94971038637695
H            3.92533890059606       -0.51083773631975        8.40786254691146
H            3.57653090571994       -1.35133378241253        9.92361642786176
H            2.97040882047032       -1.99467863604572        8.39618208485230
C            0.82773689713142       -1.03608821829370        9.87697251027977
H           -0.07761577907182       -0.44065017636088        9.97828804446428
H            0.57591313462090       -1.95589324263616        9.35459756569044
H            1.18614676647736       -1.29412573020195       10.87170697661485
C            9.51688744220815        3.62072506356791        1.54340890765046
H           10.19736253598157        2.84206830521559        1.90758226956509
C           10.20891670114941        4.35150352084593        0.38972739974660
H           10.38918617878006        3.66810783261981       -0.43765462252130
H            9.59618352420966        5.17338732824940        0.02790443974046
H           11.16367580499050        4.75659591971405        0.71938262865925
C            9.23100424261585        4.57974434118155        2.70185881367875
H            8.58119882758987        5.39065668435054        2.38182414509859
H            8.73916164208337        4.05257536004845        3.51718380896886
H           10.15870614238183        5.00948202462744        3.07516829145957
