57
 energy: -92.857153798260 gnorm: 0.000170842630 xtb: 6.6.1 (8d0f1dd)
C           -0.45184168338678       -0.99529061638472       -1.90800605336049
C           -1.07779378403476        0.16954568101691       -1.13035206441806
H           -0.51836552706197       -0.83545022623973       -2.98698864995109
H           -0.92648424965581       -1.95040496623091       -1.68298240676304
H           -1.41061852142546       -0.17804817014902       -0.15019195388599
H           -1.92734986528981        0.61551955367920       -1.64260250261007
C            0.08101256612275        1.18015595574757       -0.93550574948644
C            0.20038881451293        2.11135755782829       -2.16732351215137
C           -0.81752961128814        3.23081618480534       -1.90644906736669
H            0.02015863080983        1.58215247648946       -3.10056957240098
H            1.20847962432311        2.53032983624199       -2.19667305139574
H           -0.51610869212813        4.17927167966640       -2.35130349549244
H           -1.80298294557663        2.97453189314650       -2.30298423849874
C           -0.85700708937224        3.30026187384046       -0.40810574477516
C           -0.24540559527177        2.17501468333313        0.14649651995056
C            1.26121558604035        0.25106393052302       -0.82191231535476
C            0.97960861792366       -0.95795604987008       -1.46221004844349
C            1.94429317237340       -1.93703500520098       -1.57865772288347
H            1.72420442649913       -2.87228668630393       -2.07125920988100
C            2.49812184192300        0.44662211710618       -0.24011767790927
C            3.49481198537404       -0.52967065504967       -0.35905964435594
C            3.20232859795212       -1.70430519385011       -1.04690924684561
H            3.97698373495689       -2.44936410053065       -1.14963576846371
C           -0.06575375938906        2.08867921963315        1.51271256843887
C           -1.35032840017523        4.30192076845126        0.40244930155739
H           -1.81964708307879        5.17614160357797       -0.02351723983455
C           -1.22678620041291        4.17382695524521        1.77677905324505
H           -1.62848701881202        4.93742321762950        2.42599259886955
C           -0.56871485864305        3.08941149846726        2.35212456939793
O            0.72845861412713        1.06137691015714        2.03717392684522
O            2.73149472405494        1.58388490193092        0.54502961922041
P            2.28439903770997        1.48211078512240        2.06541411425410
O            2.92525722164259        0.13160831080009        2.60700805159193
H            3.09315196760725        0.18851110022425        3.54834809658095
O            2.61590416691239        2.69365282433651        2.81498717085763
C            4.82823287811811       -0.32584726453996        0.23058565607724
C            5.42945366645702       -1.33709879004686        0.97639029403498
C            5.51960642705071        0.86668213913168        0.03301278397646
C            6.68852689580837       -1.15566824606631        1.51829612666557
H            4.89407310112534       -2.25959414215914        1.14807856031143
C            6.78061253977400        1.04349754154865        0.57301564272405
H            5.07018939621553        1.65276535949345       -0.55608854949669
C            7.36849387419512        0.03450915600781        1.31758631080512
H            7.14189312322698       -1.94564199823144        2.09995770911049
H            7.30702365036421        1.97294658744706        0.40945539241864
H            8.35300926993162        0.17544337754206        1.73959643340386
C           -0.40755619761269        2.99995110865617        3.81143422823377
C            0.00649711134508        4.10884152149627        4.54501658061751
C           -0.68882264680177        1.81420308446116        4.48554249910814
C            0.14396092375125        4.02975586464944        5.91838050013958
H            0.24751011924462        5.02640699085310        4.02886876519422
C           -0.55409300366544        1.73931068550797        5.86003558214308
H           -1.02670754594073        0.95237107128851        3.92821965323268
C           -0.13690515911972        2.84588033821403        6.58064565950892
H            0.47375273689087        4.89526371892684        6.47509675503636
H           -0.77906533017784        0.81374979191586        6.37105044609904
H           -0.03065427604819        2.78599225470935        7.65422431637671
