119
 energy: -192.372015854384 gnorm: 0.000245155887 xtb: 6.6.1 (8d0f1dd)
C            0.95629360660425       -0.62400803317110       -1.48965124579578
C            0.10817057030356       -0.11174688045899       -0.31792553704413
H            0.61705920592951       -0.20874443502756       -2.44166793670569
H            0.93358067521552       -1.71062380062912       -1.57603634810475
H            0.12259966430475       -0.84104821575598        0.49462852959043
H           -0.92742884427259        0.07623645385896       -0.59216071026168
C            0.83078386778448        1.17528692098559        0.15365549341536
C            0.40865132433311        2.38273748022085       -0.72289188783659
C           -0.90848467674594        2.87010472069284       -0.10337627840669
H            0.31127359842310        2.11523820391372       -1.77266834435691
H            1.16631204458933        3.16426249713628       -0.63436834052625
H           -1.05257963400174        3.94412155338578       -0.22294959077998
H           -1.77048669505743        2.36780639633711       -0.54903848275906
C           -0.76064071422447        2.48060435961465        1.33775269414666
C            0.32043843323231        1.61274866054383        1.49958022377465
C            2.26770556822510        0.80795493371222       -0.10915075539329
C            2.32805322032382       -0.11795833171133       -1.15429995890533
C            3.53542430882312       -0.45713270280788       -1.72670672654188
H            3.58266483485617       -1.17004524032249       -2.53597552399834
C            3.43702166010778        1.30498526394927        0.43105466220673
C            4.66788873531443        1.02136764025464       -0.17520381992541
C            4.68894680066669        0.15919715482197       -1.26609583755722
H            5.63312342590582       -0.03406559147190       -1.75122330996748
C            0.70533773069685        1.21630972342912        2.76453506615942
C           -1.51661986268298        2.86744746808710        2.42433501800235
H           -2.36002135620224        3.53063064655138        2.30421755071890
C           -1.18486872193029        2.37698306887252        3.67810901758084
H           -1.79626661582641        2.62826958859596        4.53106566298835
C           -0.06330503800826        1.57750596349374        3.87745696273903
O            1.86824767693759        0.46335666287589        2.91181928946510
O            3.40201156690499        2.07482266264210        1.59991512253919
P            3.24686225606226        1.28748884244100        2.96845987196368
O            4.26227129496762        0.07262028998227        2.85760539561069
H            4.49412000439203       -0.27220990558187        3.72045277988302
O            3.42252626195425        2.16994510070166        4.12133928032897
C            5.91320010768104        1.71708125832947        0.23468537413333
C            6.98049937796897        1.02443355610553        0.81935023134779
C            6.03932512053774        3.08411291480819       -0.05333868704641
C            8.15285565121753        1.70670997359650        1.10862260904249
C            7.22400291050879        3.73371301112712        0.25566399194793
C            8.29336508333538        3.06040875281954        0.83203182190483
H            8.98923284658751        1.17198858151828        1.53086699067298
H            7.31904694214730        4.79009152942473        0.05715885928408
C            0.26372039584416        1.06566071306530        5.22872911095813
C            0.64544763500543        1.94070228311421        6.25478848885207
C            0.14270243185899       -0.30795554393979        5.48393059285616
C            0.93420497551967        1.42132717298599        7.50769831467631
C            0.43536458136104       -0.78839816012903        6.75068729697617
C            0.84003951414663        0.06106257947447        7.77232666120557
H            1.20797740762943        2.08892192962830        8.30992102138564
H            0.36177245188743       -1.84649144470002        6.95041320923654
C           -0.37615856101571       -1.27877213851959        4.44433365289367
H           -0.57921893316756       -0.73229215311414        3.51970643168912
C            0.72171332526569        3.43770567791116        6.05358494134249
H            0.57321337525606        3.65667266651027        4.99241376622299
C            4.94359059144293        3.87021742775946       -0.74002338454840
H            4.11239584465480        3.19725629229095       -0.96508948849958
C            6.89843156474244       -0.45095667823949        1.14170608701621
H            5.85770466040548       -0.76868304954900        1.03397223193873
C            4.41511808303308        4.97907888724869        0.17373710059873
H            4.05302804635197        4.55359815936582        1.10793774330210
H            5.19352799335611        5.70236999838079        0.40504403387641
H            3.59347466273978        5.50389360503298       -0.31050573244377
C            5.44099335314884        4.44143473156764       -2.07203510990996
H            6.22762804740946        5.17560325514235       -1.91910249702559
H            5.83037645916243        3.64356868790425       -2.70142503953287
H            4.62080228100195        4.92624506978783       -2.59753434772561
C            7.33630042944750       -0.72874454766488        2.58476782717768
H            7.02372223212807       -1.72737613406524        2.88186129520360
H            8.41777567143166       -0.67333269761416        2.68380797098917
H            6.89101643876134       -0.00563752129586        3.26424971778570
C            7.76229805064636       -1.26551604550870        0.17326485222825
H            7.43464388463994       -1.12765910460708       -0.85377142759623
H            8.80452626836279       -0.96093966863942        0.24059386934990
H            7.69547502952833       -2.32394085335355        0.41590657749139
C            2.09372365033712        3.99220833143113        6.44390120806958
H            2.29306024538027        3.85937788672266        7.50426017408316
H            2.86894068385720        3.48859992833527        5.87301088901558
H            2.13765025999971        5.05647292875008        6.22080726979746
C           -0.38346645028586        4.13344387578134        6.85673692712068
H           -0.37805628384260        5.20167114443889        6.65052675793921
H           -1.36253620117845        3.73689431844613        6.59713531045797
H           -0.23262011960024        3.98937362236785        7.92412809994953
C            0.65234556868603       -2.36768639319303        4.12976174493008
H            1.57394562184355       -1.91670741941086        3.76865601008494
H            0.87922281229353       -2.96318333258461        5.01080947386515
H            0.26703427430968       -3.03189462405357        3.35829446627045
C           -1.69965749741051       -1.89353269495679        4.91294408829955
H           -1.55774537788361       -2.50243273066770        5.80214616156615
H           -2.41846472091560       -1.10948796706390        5.14302944750029
H           -2.11617555638052       -2.52398863730023        4.12996770917104
C            9.55365408486802        3.76031158054271        1.11993267716535
C           10.08569424078529        4.66420937474108        0.19981229086724
C           10.24438399332604        3.52918345755617        2.30877401716887
C           11.27392782405520        5.31791637377349        0.45601871240050
H            9.57294817730150        4.84039516319277       -0.73329695361939
C           11.43257421176729        4.18092841334921        2.57746709313549
H            9.83628707483486        2.84731569261340        3.03910364951335
C           11.94978747275278        5.07306385693867        1.64671710161068
H           11.68684221842810        6.01119279519543       -0.26170531970573
H           11.95962846465774        4.00026366259596        3.50218512533771
C            1.13158835302917       -0.46537130259416        9.11357323659583
C            0.30127529750552       -1.42494859560387        9.69374537971042
C            2.23655706274974       -0.01100894398102        9.83217039328866
C            0.56412965551085       -1.91677819799254       10.95615427525673
H           -0.56904997983078       -1.77201691626744        9.15826711149272
C            2.51185623950853       -0.49979453089686       11.09485814226585
H            2.89627052947427        0.71890337462017        9.38810759479958
C            1.67149955391007       -1.45174131271477       11.65797503222973
H           -0.08453955481162       -2.65335500593453       11.40679422068996
H            3.37197248337766       -0.14695269935825       11.64364045814125
C           13.22621515069866        5.80807312257570        1.91480258748522
C            1.94553545915131       -2.01540071195288       13.01751254684062
F            2.90171295491238       -1.36093538013766       13.69688713292707
F            0.85603706140008       -2.01274987630086       13.81474900772855
F            2.34824645159232       -3.30770526189777       12.97148805489197
F           13.94517824661145        5.29673636881668        2.92815208793482
F           13.01980593615995        7.10851875051765        2.23261252228127
F           14.05247801719101        5.83090641749202        0.84825713786385
