137
 energy: -199.047619281539 gnorm: 0.000290408457 xtb: 6.6.1 (8d0f1dd)
C            0.76284005616658       -0.61079557880565       -1.79506642587780
C           -0.11632496927253       -0.13644080067457       -0.63000500676915
H            0.44247846779877       -0.17213799063991       -2.74310933952300
H            0.75053466053312       -1.69486646425617       -1.91131846501732
H           -0.10958169478975       -0.88285470200040        0.16722881919905
H           -1.14834545792282        0.04502499579937       -0.92181209934142
C            0.58135945918611        1.14764262848403       -0.11705270065357
C            0.17186907804595        2.36358065923724       -0.98811672225190
C           -1.16591524966835        2.82930346551306       -0.39718716088398
H            0.10524419274752        2.11084950092562       -2.04390337204044
H            0.91969552910447        3.15060494772721       -0.86804152368481
H           -1.32342427738836        3.90153515244896       -0.51633202313737
H           -2.00969572178743        2.31518380679307       -0.86379507353582
C           -1.04068290034536        2.43764507177423        1.04570945962651
C            0.03834360702134        1.56871829078135        1.22178393882767
C            2.02881593930817        0.79393490833691       -0.34496772673408
C            2.12277551397998       -0.10617125805344       -1.41096161868644
C            3.34699002877686       -0.43342270696521       -1.95314896344844
H            3.41723936105047       -1.11867080301085       -2.78455246596274
C            3.18280107168507        1.26260071066832        0.24945760851759
C            4.43619951744770        0.96543509500670       -0.30336255033584
C            4.49098832551088        0.14592532401826       -1.42408604443744
H            5.45078567731906       -0.05215659335834       -1.87496829633875
C            0.41097247241987        1.18748974581009        2.49386609836856
C           -1.80493761690674        2.83568764843086        2.12213988942531
H           -2.65126095579735        3.49237344277260        1.98625911932175
C           -1.46561132596351        2.38526017610357        3.38971873276942
H           -2.06892826995688        2.66827252554475        4.23868924926263
C           -0.34025890223666        1.59693371616779        3.60278448954447
O            1.55283762575960        0.40758618988533        2.66480573399358
O            3.12303741161354        2.01361194880103        1.42977580059605
P            2.94472906386489        1.19950155086329        2.77770839050911
O            3.94083436827769       -0.03107793075547        2.65740051235947
H            4.12091459638408       -0.41889153842915        3.51435406728295
O            3.12435898243867        2.04909300422676        3.95437841268824
C            5.65968863833333        1.58539679359969        0.26199490700857
C            6.64796696687218        0.81128845924928        0.88414427596029
C            5.82204820836596        2.97389854686484        0.15244701477653
C            7.76068930976321        1.44352286291188        1.41979659321175
C            6.94315242353566        3.57079591382661        0.70930488785281
C            7.91103645982920        2.82026880557290        1.35791630824315
H            8.53155759990883        0.86243774418565        1.90291662622068
H            7.07479832066306        4.64088691442086        0.64521056347470
C            0.09578867915079        1.18226422595654        4.95531684641636
C            0.56709938101972        2.13238350517066        5.87138235638187
C            0.08385673870630       -0.17799362191499        5.29073033826284
C            1.09791737224773        1.69223408594818        7.07448004944796
C            0.62758974742223       -0.57950585907487        6.50117408074248
C            1.16954609234254        0.34242590696998        7.38404613123938
H            1.48152737199925        2.40590495057081        7.78800440672252
H            0.64606238088581       -1.62617232403572        6.76832855597466
C           -0.58346643580678       -1.21012790208133        4.40669752545694
H           -0.91207245121728       -0.72479183853205        3.48281223364954
C            0.49343917112205        3.61925962601756        5.60527514155441
H            0.22658584049629        3.77398938422060        4.55587626315171
C            4.84441476125481        3.84408844983142       -0.60736586531577
H            4.02887832434665        3.21966028860883       -0.98246201813143
C            6.55292780975671       -0.69520523488269        0.98418622442476
H            5.52607479243207       -0.99171708818071        0.75266026191871
C            4.23572956706048        4.91690694920050        0.29914340483267
H            3.76932706288640        4.45382089548904        1.16676309590777
H            4.99405661649402        5.61356334430974        0.64869899067624
H            3.47852484085996        5.48062750175181       -0.24331974844444
C            5.53421443303254        4.47627593216560       -1.82124780820700
H            6.33634271528106        5.14287886821298       -1.51395047427437
H            5.95555271826911        3.70252739262678       -2.46047379879482
H            4.81520089517371        5.05017119516711       -2.40246552168522
C            6.89031410202974       -1.19632177330385        2.39385450272005
H            6.52221211705028       -2.21158073832498        2.52529345230790
H            7.96521257052463       -1.20583563093998        2.55970029428813
H            6.43420870403245       -0.55965944615336        3.14786324840996
C            7.49741153435656       -1.35186468619998       -0.02902120660737
H            7.25825387844158       -1.04730536228322       -1.04451721027579
H            8.52798575308415       -1.06774051199203        0.17457844523981
H            7.41788478634556       -2.43520527670213        0.03358079187088
C            1.83466095924658        4.31761720563390        5.84039794580850
H            2.10404858526335        4.32393779957759        6.89374842444751
H            2.61578119085897        3.80814963151125        5.28283072320111
H            1.77882840802821        5.34970764834922        5.49903202575154
C           -0.59495849471538        4.24510595217790        6.48541839838280
H           -0.69538430130708        5.30498325105154        6.26055508565833
H           -1.55583590616218        3.76287316487832        6.31819812567401
H           -0.34167643943824        4.13801089060084        7.53806112800284
C            0.36598704217854       -2.34804136844615        4.02651057847137
H            1.23962908357374       -1.95029602013636        3.51496708818681
H            0.69742158478953       -2.89692693278790        4.90459463131036
H           -0.13816860985024       -3.04500860671302        3.35930122061306
C           -1.83044567617378       -1.75340359859299        5.11386874296186
H           -1.56254861542021       -2.26734303941693        6.03412107243164
H           -2.50863717910595       -0.93846216182879        5.36043835135881
H           -2.35410768683307       -2.45448995628230        4.46697313360133
C            9.08997487274951        3.47059018969439        1.97218449558322
C           10.15931688305524        3.88540755534525        1.16634267312134
C            9.12702518447866        3.65915344858732        3.36121575506456
C           11.30147265285726        4.49873340054399        1.77050123886096
C           10.15578639150373        3.70765715600094       -0.24248115425290
C           10.27640777034706        4.26514816879226        3.95925406401120
C            8.04637537778925        3.28481177758502        4.20348792353071
C           12.37392358360968        4.91455416414733        0.93915899365829
C           11.33573515951408        4.66846356805917        3.15145253702038
C           11.20492415537439        4.12127563395038       -1.00515176354381
H            9.29857958851517        3.23474357068524       -0.69946083718937
C           10.30083633562495        4.44336114872368        5.36699200586039
C            8.10538416677315        3.48231120804215        5.54945348214594
H            7.16461113006794        2.84884436467237        3.75500927133288
C           12.32725854599878        4.73451264126686       -0.40890467539347
H           13.23157254594929        5.37971652548522        1.40522039110229
H           12.20315475193333        5.12702355070715        3.60675830141362
H           11.18875500436395        3.98173109380142       -2.07672533415592
H           11.17679838442618        4.89645465700331        5.81027140117436
C            9.24833050626812        4.06158215429493        6.14042667248724
H            7.27085036032964        3.20445770806186        6.17748822248192
H           13.14813252448538        5.05501178890058       -1.03453006292620
H            9.27293254048840        4.20413394698713        7.21148444765533
C            1.82493867462088       -0.11169686826214        8.63004811364628
C            1.05457828302722       -0.55451744480859        9.71406489882640
C            3.22601080336579       -0.10884645679711        8.70329776858195
C            1.70545645485306       -1.00779207748644       10.90436278270702
C           -0.36489973879226       -0.55699734324740        9.67907792030837
C            3.86970292338198       -0.56179940092386        9.89769725116488
C            4.03868956448909        0.31135425094792        7.61656762152535
C            0.90920095767746       -1.45491813365954       11.99077027521953
C            3.09569031749431       -0.99969024030355       10.96862644379496
C           -1.09291786257595       -0.99326771040615       10.74359100718441
H           -0.85768380763108       -0.20060275145153        8.78603772128623
C            5.28785641215021       -0.55844130137378        9.95389753731795
C            5.39726740470528        0.29130240252568        7.70876856039638
H            3.55970201937992        0.65390640183229        6.71022110649128
C           -0.44941222667237       -1.45099177372060       11.91312553756547
H            1.41056926688019       -1.79813025904534       12.88515848269309
H            3.58566076755224       -1.34334944206474       11.86965766427540
H           -2.17296753449042       -0.99008103490199       10.70387561503112
H            5.76439871487816       -0.89631374172447       10.86374415554565
C            6.03108065120495       -0.14457139449950        8.89172487125472
H            6.00294385697897        0.61004556769230        6.87204359620357
H           -1.04808590583373       -1.79302917716400       12.74536861196794
H            7.11067017920261       -0.14682473940637        8.94158082179988
