69
 energy: -156.263689510973 gnorm: 0.000358462577 xtb: 6.6.1 (8d0f1dd)
C           -0.36852565595415       -0.92377228457812       -2.29521073801424
C           -1.11481370836277        0.09849796680663       -1.42834609823117
H           -0.42781851848238       -0.66815877253300       -3.35551395097248
H           -0.75515087412025       -1.93535597746464       -2.17557165414009
H           -1.42653276461085       -0.36838258743451       -0.49235929486367
H           -1.99429047522728        0.50945195488298       -1.91746632371336
C           -0.05785487833067        1.18856813310756       -1.11955549276816
C            0.00536205795439        2.21870054632616       -2.27571844928901
C           -1.12311283391651        3.21226203872403       -1.96509491974360
H           -0.09922724568241        1.74802096578739       -3.25006652881099
H            0.96779251239010        2.73263465811611       -2.24038675734772
H           -0.91216153110645        4.21413517978835       -2.33769509481554
H           -2.07192351621558        2.88844218349607       -2.39852655993063
C           -1.19153499130735        3.17501636883361       -0.46894620946621
C           -0.49311101824994        2.06913494902152        0.02217734645226
C            1.20033769269185        0.36066378940699       -1.04573819033180
C            1.04285947313078       -0.80178922859791       -1.80856716696192
C            2.09096075810547       -1.68102723147567       -1.99013684990090
H            1.96462120455489       -2.57330379284500       -2.58358757781054
C            2.39961131453727        0.59658863784959       -0.40282238994042
C            3.47085465830084       -0.29237592434570       -0.57044093600144
C            3.30626158326585       -1.41093229091121       -1.38342904902635
H            4.14241292323749       -2.07769725868441       -1.52697231573128
C           -0.31481149355678        1.91227335010419        1.38185352786407
C           -1.77707008305294        4.07840261347388        0.39514374331677
H           -2.32741310581409        4.92593511144808        0.01686620322807
C           -1.62028006427963        3.90027747596345        1.75953952879223
H           -2.07384876650538        4.59721333278620        2.44715104765363
C           -0.86430988933493        2.84682684703459        2.27162363709374
O            0.51880310807817        0.89607724932431        1.84945259836872
O            2.53138159510697        1.65686685297746        0.50045789783672
P            2.05342967845980        1.37331810593047        1.98762286247325
O            2.74982394595225        0.00284079814255        2.37722636347159
H            2.70765672700779       -0.18161905359823        3.31720210140824
O            2.28844535958407        2.51000900579686        2.87505491571440
C            4.73709010682204       -0.06301685154734        0.13973189643379
C            5.35823786036096       -1.11142958449209        0.81367746769859
C            5.32802639009530        1.19946651058270        0.16303837383824
C            6.53964154371042       -0.89308576643514        1.50780807127792
H            4.90927327342674       -2.09315649565976        0.81408355046745
C            6.50578370667727        1.40106875890211        0.86386237028013
H            4.87133012070553        2.02011658188623       -0.36805554284915
C            7.12528223735977        0.36325257281531        1.54926900416021
H            8.04016595179786        0.53305680217895        2.09617857192092
C           -0.56625424293384        2.75587391039240        3.70552299382826
C           -0.23228163671519        3.90585406366416        4.42000529493765
C           -0.54862984872324        1.53056430251538        4.36613506157823
C            0.13853368427722        3.81920918350990        5.75200224870786
H           -0.22142809939989        4.86398002684282        3.92370196455737
C           -0.15075756867220        1.45895557249455        5.69367384785498
H           -0.84081340758815        0.62897465726721        3.84970093220426
C            0.20070323954945        2.59543406650810        6.40528147241408
H            0.51940870322610        2.53105530497736        7.43421793861939
C            7.15607720891885        2.75670947056972        0.90290705409454
C            7.15562915909695       -2.03918100267795        2.26286701161011
C            0.47043910539056        5.07857075267317        6.50489612872470
C           -0.03790334922235        0.09854850598234        6.32055257176329
F            1.07455781814262        6.00346382657421        5.74424348938894
F           -0.63844865114629        5.67614140524988        6.99467313379908
F            1.27026577155534        4.86990989636327        7.56054374328907
F            0.15970012977541        0.12264196919004        7.64312586494822
F           -1.12244959680027       -0.66643346994692        6.11051518674780
F            1.00100880103399       -0.59477915401209        5.79736767868550
F            7.33487680830902        3.20025610324229        2.16078531705045
F            6.46373305401850        3.70415961797477        0.25958751093169
F            8.38327855784288        2.74542622828666        0.34289478936871
F            8.43564273659397       -1.83165252736114        2.59800519788198
F            7.12637097520089       -3.18894664618517        1.56766754696088
F            6.50128627909436       -2.29145230497909        3.41581303094654
