95
 energy: -141.653057728482 gnorm: 0.000491900339 xtb: 6.6.1 (8d0f1dd)
C           -0.54003378438380       -0.95363287814123       -2.27695820846183
C           -1.20974471941874        0.15256921347735       -1.45206988453745
H           -0.60916082845042       -0.74995048535680       -3.34831343666506
H           -0.98070880741609       -1.93428825534224       -2.09644881933657
H           -1.53555720934306       -0.24931462613594       -0.49027916260664
H           -2.07133227171340        0.59273154197742       -1.94905313512506
C           -0.08531912384732        1.19001388335998       -1.20496095478298
C            0.03193329680446        2.15284415564460       -2.41335581477251
C           -1.03535653146475        3.22666431122235       -2.15833282624287
H           -0.10156613769349        1.63866988716172       -3.36264064715817
H            1.02391314697602        2.60966077262476       -2.40522230112223
H           -0.75355907693733        4.19761140789866       -2.56644706721157
H           -1.99646672352706        2.94766654068693       -2.59688730624913
C           -1.12703640562317        3.25379845409730       -0.66091957688317
C           -0.47327561340861        2.14966669326349       -0.11270087198609
C            1.11965880149228        0.29095112321436       -1.10461086600266
C            0.88757663011836       -0.88545816488164       -1.82193971375920
C            1.89644096773342       -1.80558474527515       -2.01331485832941
H            1.71955126809985       -2.71049742777816       -2.57509819928963
C            2.34576348285915        0.49393659913060       -0.50209212275235
C            3.38953479515204       -0.41924379678584       -0.69905845721014
C            3.14948668102761       -1.54479794295480       -1.48241674839671
H            3.96316179994176       -2.22769800257059       -1.66919134632701
C           -0.32983137118640        2.04059020382322        1.25590806268994
C           -1.71942187686629        4.19322151910282        0.15713826919110
H           -2.23824388405850        5.04271293336165       -0.26130681069663
C           -1.63998148996754        4.03056079643344        1.53127260485616
H           -2.13505067582342        4.73427839550852        2.18232657593027
C           -0.91640187625714        2.98680570367689        2.10361872017701
O            0.47474727439887        1.02058235316682        1.77492272171106
O            2.53678137959827        1.58957785844149        0.35140271774439
P            2.03120931033847        1.43318828090470        1.84393641477972
O            2.65483612916054        0.05921129136825        2.34378830079828
H            2.48659807732091       -0.07813877262017        3.27684571934424
O            2.34377143611703        2.61479951601865        2.64709133337275
C            4.74307564217480       -0.13658171475130       -0.18082512153398
C            5.48612826879989       -1.03723446561155        0.59092517120034
C            5.31820323030986        1.08029649216556       -0.54715366160105
C            6.78708325070113       -0.69637036769540        0.93638318998351
C            6.61115086504104        1.40122521193256       -0.19373882867042
H            4.73652510271388        1.77677274057255       -1.13443900503794
C            7.37270934167272        0.50310509453584        0.54925370677278
H            7.38021477930489       -1.39435095550987        1.50825631388155
H            7.02858269535913        2.35471635582390       -0.48321126245005
C           -0.83297816921946        2.82855964205204        3.56798016460924
C           -0.37985870672266        3.83483520672537        4.42892317287600
C           -1.26595485238269        1.61632185313437        4.10505399971783
C           -0.40157797617362        3.59211276466319        5.79580578853859
C           -1.28308644180663        1.39592568774964        5.46588167552390
H           -1.61016605307604        0.84209582920296        3.43337944468910
C           -0.85384082962740        2.39405110639915        6.33644839204950
H           -0.07628410721896        4.36844855422843        6.47231984170454
H           -1.61710889603070        0.44492231192929        5.85547210854154
C           -0.88446419022671        2.19413161013997        7.79392448717726
C            0.18044129154097        2.60566156886901        8.59265797632692
C           -1.98558123169260        1.59679256748373        8.40412244818805
C            0.14363854460329        2.42607455355866        9.96340376239994
H            1.05004051258296        3.05127238254824        8.13062547400117
C           -2.02309915207326        1.42271989131537        9.77551858729475
H           -2.82594456298930        1.28792675745457        7.79879951273355
C           -0.95892627226727        1.83648634285015       10.55983736773846
H            0.97935883940714        2.74615092993021       10.56968160672344
H           -2.88739123354796        0.96473901419758       10.23552176907386
H           -0.98853195598724        1.69981905002530       11.63121693332950
C            8.76573458262850        0.80926167213750        0.91043984442050
C            9.24987207385803        0.53630133185123        2.18799477530879
C            9.63052541217679        1.37326311166358       -0.02533056935729
C           10.56195127199812        0.82081096820718        2.51973722527384
H            8.58523167563792        0.11879888645002        2.93100275336008
C           10.94365094465691        1.65221530417330        0.30629772340621
H            9.27298902054422        1.57484366194886       -1.02511073004264
C           11.41388865442698        1.37749122975636        1.57997203516024
H           10.92191762089408        0.60924465367416        3.51675008079607
H           11.60407917213614        2.08424429527204       -0.43233978039034
H           12.43956753555758        1.59700974069388        1.83928414772807
C            4.91263387591348       -2.34606327259764        1.08572211489265
H            3.85526853093801       -2.38627497583990        0.80861769660660
C            5.63360156676704       -3.53954202790846        0.45119787172593
H            5.58934607139701       -3.49047084500857       -0.63451290741741
H            6.68091630943022       -3.55674526602973        0.74395719831272
H            5.17131179061760       -4.47022167613131        0.77378920703423
C            4.99607603922996       -2.43010284398780        2.61333988957837
H            4.57729414864264       -1.53153897192927        3.05979130429970
H            4.43541062879486       -3.29153470384915        2.97038582848555
H            6.02588353720853       -2.53354269131019        2.94669907189757
C            0.15470687546570        5.15546256808303        3.92481272664325
H            0.15764130300514        5.13505044653989        2.83159197525778
C           -0.72534908790090        6.31885148505821        4.39306365602855
H           -1.76178056702900        6.16428229024310        4.09934207407979
H           -0.69244424703498        6.41810791551403        5.47554557183772
H           -0.37674714820607        7.25094193685182        3.95301358877573
C            1.60471017570530        5.35770279107669        4.37339927013015
H            2.21331114313514        4.52791647225881        4.02183037974933
H            1.99926271603041        6.27952253360990        3.95026100237862
H            1.68256457045086        5.41757962588292        5.45629765361283
