75
 energy: -111.868846327566 gnorm: 0.000368687352 xtb: 6.6.1 (8d0f1dd)
C           -0.41986392370733       -0.92427168073977       -2.22085787993144
C           -1.12487619525926        0.16006148740896       -1.39599016151374
H           -0.46968359621651       -0.70720338731602       -3.29074280372054
H           -0.84821396257438       -1.91404889134127       -2.06185663495260
H           -1.46237987923186       -0.25979759054589       -0.44614274578219
H           -1.98423763973608        0.59028602106763       -1.90531339873944
C           -0.02593111847480        1.21598970202122       -1.11438700687412
C            0.07346764177884        2.21661049999172       -2.29234095411456
C           -1.01951848373614        3.25609585654831       -2.00700244880489
H           -0.04453046033365        1.72842651971738       -3.25731515806590
H            1.05386539296883        2.69696349174416       -2.26536873028501
H           -0.76968318572471        4.24238472349418       -2.39824132370111
H           -1.97687354723609        2.95776310903807       -2.44124999009940
C           -1.09671400823117        3.24884917870379       -0.50843087360939
C           -0.43284264576498        2.13468356461040        0.00761212771596
C            1.19836226083425        0.34337202524721       -1.01829554979313
C            0.99613937523432       -0.83899263422681       -1.73414320066829
C            2.01222593296764       -1.76043662658366       -1.87904711490768
H            1.85380054183185       -2.67340718092203       -2.43335661492523
C            2.40821080181344        0.56533733236241       -0.39039252323614
C            3.45353375364017       -0.35595986769189       -0.52895165740435
C            3.24025543567802       -1.50002385677851       -1.29357468921310
H            4.05378977770097       -2.19979762823028       -1.41305192397693
C           -0.27498320175147        1.99532294949474        1.37242793561177
C           -1.66470578074667        4.18087111901573        0.33523417107262
H           -2.17798209048117        5.04426591184963       -0.06111453938724
C           -1.55605435135782        3.99871190852389        1.70436059588690
H           -2.01168945818269        4.70860221957810        2.37841035077991
C           -0.84381507656386        2.93039169015820        2.24510670175280
O            0.55758974532908        0.98430365711092        1.86809599238674
O            2.56699254582226        1.67078636417713        0.45644634165186
P            2.09017832867979        1.47472556216245        1.95801586845748
O            2.77994252338648        0.13016654966627        2.45353308047189
H            2.91905667909342        0.15125730790643        3.40091583132313
O            2.34874278449356        2.66167689715110        2.77290598332634
C            4.75438156197706       -0.13520738811036        0.12195000194036
C            5.37465796042453       -1.16608060503849        0.82202128049437
C            5.40690722122935        1.09137747267989        0.03249347662480
C            6.60705899041348       -0.97100990575165        1.41587545514722
H            4.87523595799511       -2.11933719570608        0.91821126024522
C            6.64136495396382        1.27686766079069        0.62390421988725
H            4.94853020271085        1.90075593716053       -0.51713770858928
C            7.26393390206464        0.25021938750318        1.32501452895719
H            7.06754955797302       -1.78479361586647        1.95950893174738
H            7.12457548971466        2.23841386811725        0.53182561212480
C           -0.69074117716749        2.80247414088254        3.70150152547993
C           -0.36500220241461        3.91422579987250        4.47459066499754
C           -0.89054801869040        1.58536528658703        4.34543149545408
C           -0.24265452048399        3.80974475172494        5.84545414492665
H           -0.18070857010926        4.86142400000305        3.98902221905404
C           -0.76931406234997        1.48915515038542        5.71948616538624
H           -1.15836660072775        0.71246039219037        3.76739447181109
C           -0.44624347843450        2.59630232654059        6.49378026145293
H            0.01612779300157        4.68971955216302        6.41576086885165
H           -0.93531675351487        0.53358025483464        6.19887333419378
C            8.61840825951821        0.44207071200359        1.96332168867069
H            8.88966215768455       -0.49084245597711        2.47122560843527
C            9.68175855615479        0.72825784061220        0.89894962066196
H            9.70112633924784       -0.06987377892573        0.15916622863894
H            9.47436115330964        1.66493489104782        0.38683706812091
H           10.66537697038299        0.79832817976501        1.35898186548966
C            8.58071804064331        1.55833089711201        3.01022573774389
H            7.81485990287538        1.35332582141700        3.75595003686631
H            9.54292447132211        1.63459466779759        3.51279571553517
H            8.35820464624895        2.51724961780653        2.54848918761819
C           -0.33805498149190        2.47900207370685        7.99506241968003
H           -0.50077839747129        1.42929172720772        8.26624453640688
C            1.05458492963060        2.88447758388514        8.48410160680410
H            1.13943848355738        2.71776654541603        9.55622563420011
H            1.81919708424057        2.29694627682697        7.97932527391720
H            1.24594930103305        3.93591987590340        8.28480938678385
C           -1.42137413838107        3.31870107548741        8.67862533318758
H           -1.38085939629588        3.18043461656036        9.75721724143691
H           -1.28476141368738        4.37530873933443        8.46155487232127
H           -2.40774509201155        3.02155151765215        8.32763167050192
