syn_R_TS
                    3D
 Schrodinger Suite 2022-1.
134141  0  0  1  0            999 V2000
   -0.1557   -0.2993   -0.2072 Rh  0  2  0  0  0  0
   -0.3957   -1.0524   -2.5537 Rh  0  2  0  0  0  0
    8.7549   -0.0707   -0.3452 Cl  0  0  0  0  0  0
    7.7225   -1.3696   -0.8362 C   0  0  0  0  0  0
    6.4289   -1.1027   -1.3001 C   0  0  0  0  0  0
    8.1524   -2.7084   -0.7608 C   0  0  0  0  0  0
    5.6776    0.1747   -1.4763 C   0  0  0  0  0  0
    5.5937   -2.1160   -1.6788 C   0  0  0  0  0  0
    7.2833   -3.7511   -1.1414 C   0  0  0  0  0  0
    9.7414   -3.0726   -0.1765 Cl  0  0  0  0  0  0
    4.4720   -0.1519   -2.0122 N   0  0  0  0  0  0
    6.0104    1.3085   -1.1661 O   0  0  0  0  0  0
    5.9889   -3.4535   -1.6025 C   0  0  0  0  0  0
    4.3128   -1.4968   -2.1151 C   0  0  0  0  0  0
    7.7864   -5.4041   -1.0257 Cl  0  0  0  0  0  0
    3.4757    0.8992   -2.4472 C   0  0  2  0  0  0
    4.8681   -4.7015   -2.0443 Cl  0  0  0  0  0  0
    3.2523   -2.0440   -2.4448 O   0  0  0  0  0  0
    2.0154    0.5090   -2.0307 C   0  0  0  0  0  0
    3.6827    1.4237   -3.9350 C   0  0  0  0  0  0
    3.6570    1.7702   -1.8107 H   0  0  0  0  0  0
    1.6537    0.6182   -0.8115 O   0  0  0  0  0  0
    1.3701   -0.0417   -2.9598 O   0  0  0  0  0  0
    5.0655    2.1079   -4.0697 C   0  0  0  0  0  0
    3.6417    0.2959   -4.9991 C   0  0  0  0  0  0
    2.6409    2.5046   -4.3226 C   0  0  0  0  0  0
    5.8980    1.4087   -3.9854 H   0  0  0  0  0  0
    5.2178    2.8840   -3.3165 H   0  0  0  0  0  0
    5.1919    2.5939   -5.0401 H   0  0  0  0  0  0
    4.4121   -0.4582   -4.8317 H   0  0  0  0  0  0
    3.8435    0.6988   -5.9953 H   0  0  0  0  0  0
    2.6854   -0.2140   -5.0739 H   0  0  0  0  0  0
    2.6607    3.3458   -3.6274 H   0  0  0  0  0  0
    1.6197    2.1364   -4.3848 H   0  0  0  0  0  0
    2.8615    2.9291   -5.3058 H   0  0  0  0  0  0
   -0.3738   -3.3602    1.8338 O   0  0  0  0  0  0
    0.6268   -4.0318    2.1426 C   0  0  0  0  0  0
    1.5313   -4.5124    1.2448 N   0  0  0  0  0  0
    1.1662   -4.3671    3.4930 C   0  0  0  0  0  0
    2.6435   -5.0058    1.8472 C   0  0  0  0  0  0
    1.3978   -4.5040   -0.2604 C   0  0  2  0  0  0
    0.6445   -4.1671    4.7738 C   0  0  0  0  0  0
    2.3964   -4.9390    3.3143 C   0  0  0  0  0  0
    3.6511   -5.3659    1.2540 O   0  0  0  0  0  0
    1.0330   -3.0796   -0.7739 C   0  0  0  0  0  0
    0.5682   -5.7132   -0.8567 C   0  0  0  0  0  0
    2.4083   -4.6282   -0.6562 H   0  0  0  0  0  0
    1.4154   -4.5408    5.8885 C   0  0  0  0  0  0
   -0.9143   -3.4375    4.9640 Cl  0  0  0  0  0  0
    3.1850   -5.3219    4.4051 C   0  0  0  0  0  0
    1.0567   -2.0542   -0.0819 O   0  0  0  0  0  0
    0.5617   -2.8749   -2.0155 O   0  0  0  0  0  0
    0.9772   -7.0433   -0.1740 C   0  0  0  0  0  0
    0.8601   -5.9037   -2.3677 C   0  0  0  0  0  0
   -0.9585   -5.5509   -0.6627 C   0  0  0  0  0  0
    2.6874   -5.1170    5.7047 C   0  0  0  0  0  0
    0.8054   -4.2484    7.4829 Cl  0  0  0  0  0  0
    4.7581   -5.9959    4.1477 Cl  0  0  0  0  0  0
    2.0521   -7.2250   -0.2451 H   0  0  0  0  0  0
    0.4906   -7.9075   -0.6325 H   0  0  0  0  0  0
    0.7102   -7.0807    0.8828 H   0  0  0  0  0  0
    1.9330   -5.9552   -2.5676 H   0  0  0  0  0  0
    0.4361   -5.1362   -3.0090 H   0  0  0  0  0  0
    0.4454   -6.8466   -2.7345 H   0  0  0  0  0  0
   -1.3666   -4.6943   -1.1887 H   0  0  0  0  0  0
   -1.2380   -5.4794    0.3893 H   0  0  0  0  0  0
   -1.4896   -6.4255   -1.0488 H   0  0  0  0  0  0
    3.6539   -5.5448    7.0765 Cl  0  0  0  0  0  0
   -2.1262   -2.0300   -1.9930 O   0  0  0  0  0  0
   -2.5164   -1.9432   -0.7978 C   0  0  0  0  0  0
   -1.9425   -1.3109    0.1479 O   0  0  0  0  0  0
   -3.9305   -2.4779   -0.3558 C   0  0  1  0  0  0
   -4.6784   -1.4860    0.5086 N   0  0  0  0  0  0
   -4.8239   -3.1155   -1.5080 C   0  0  0  0  0  0
   -3.6670   -3.3129    0.2991 H   0  0  0  0  0  0
   -5.3517   -1.8608    1.6265 C   0  0  0  0  0  0
   -4.7803   -0.1534    0.2744 C   0  0  0  0  0  0
   -5.1993   -2.0973   -2.6165 C   0  0  0  0  0  0
   -4.1291   -4.3390   -2.1619 C   0  0  0  0  0  0
   -6.1600   -3.6594   -0.9397 C   0  0  0  0  0  0
   -5.3110   -2.9816    2.1137 O   0  0  0  0  0  0
   -6.0620   -0.6461    2.1212 C   0  0  0  0  0  0
   -4.1317    0.4421   -0.5946 O   0  0  0  0  0  0
   -5.7102    0.3894    1.3004 C   0  0  0  0  0  0
   -5.8461   -2.5633   -3.3649 H   0  0  0  0  0  0
   -4.3492   -1.7003   -3.1643 H   0  0  0  0  0  0
   -5.7688   -1.2531   -2.2251 H   0  0  0  0  0  0
   -3.8413   -5.0830   -1.4164 H   0  0  0  0  0  0
   -3.2542   -4.0976   -2.7591 H   0  0  0  0  0  0
   -4.8072   -4.8557   -2.8466 H   0  0  0  0  0  0
   -6.0032   -4.3633   -0.1197 H   0  0  0  0  0  0
   -6.7400   -4.1961   -1.6944 H   0  0  0  0  0  0
   -6.8208   -2.8730   -0.5735 H   0  0  0  0  0  0
   -6.9202   -0.4456    3.2080 C   0  0  0  0  0  0
   -6.1849    1.6841    1.5172 C   0  0  0  0  0  0
   -7.4207    0.8485    3.4454 C   0  0  0  0  0  0
   -7.3204   -1.7643    4.2545 Cl  0  0  0  0  0  0
   -7.0507    1.9143    2.6004 C   0  0  0  0  0  0
   -5.6549    2.9718    0.4856 Cl  0  0  0  0  0  0
   -8.4591    1.1359    4.8011 Cl  0  0  0  0  0  0
   -7.6193    3.5202    2.9107 Cl  0  0  0  0  0  0
   -1.2793    1.4044   -0.7588 O   0  0  0  0  0  0
   -1.7215    1.4797   -1.9534 C   0  0  0  0  0  0
   -1.4746    0.6786   -2.8948 O   0  0  0  0  0  0
   -2.4140    2.8682   -2.2174 C   0  0  1  0  0  0
   -1.6079    4.0231   -1.6585 N   0  0  0  0  0  0
   -2.9490    3.0992   -3.6955 C   0  0  0  0  0  0
   -3.3085    2.7994   -1.5919 H   0  0  0  0  0  0
   -0.2537    4.1336   -1.6816 C   0  0  0  0  0  0
   -2.1920    5.0734   -1.0228 C   0  0  0  0  0  0
   -1.8060    3.1823   -4.7400 C   0  0  0  0  0  0
   -3.9496    1.9885   -4.1170 C   0  0  0  0  0  0
   -3.7403    4.4270   -3.8009 C   0  0  0  0  0  0
    0.5110    3.2336   -2.0610 O   0  0  0  0  0  0
    0.0794    5.4399   -1.0513 C   0  0  0  0  0  0
   -3.3857    5.1615   -0.7772 O   0  0  0  0  0  0
   -1.0956    6.0160   -0.6575 C   0  0  0  0  0  0
   -1.1113    3.9950   -4.5221 H   0  0  0  0  0  0
   -2.2065    3.3954   -5.7347 H   0  0  0  0  0  0
   -1.2269    2.2685   -4.8406 H   0  0  0  0  0  0
   -4.7409    1.8592   -3.3754 H   0  0  0  0  0  0
   -3.4949    1.0187   -4.2994 H   0  0  0  0  0  0
   -4.4548    2.2471   -5.0516 H   0  0  0  0  0  0
   -3.1157    5.3094   -3.6590 H   0  0  0  0  0  0
   -4.5527    4.4808   -3.0731 H   0  0  0  0  0  0
   -4.2023    4.5546   -4.7828 H   0  0  0  0  0  0
    1.3105    6.0427   -0.7846 C   0  0  0  0  0  0
   -1.1093    7.2518   -0.0002 C   0  0  0  0  0  0
    1.3272    7.2859   -0.1285 C   0  0  0  0  0  0
    2.7759    5.2181   -1.2115 Cl  0  0  0  0  0  0
    0.1163    7.8937    0.2597 C   0  0  0  0  0  0
   -2.6079    7.9495    0.5122 Cl  0  0  0  0  0  0
    2.8448    8.0405    0.2279 Cl  0  0  0  0  0  0
    0.1355    9.4130    1.0914 Cl  0  0  0  0  0  0
  1 71  1  0  0  0
  1  2  1  0  0  0
  1102  1  0  0  0
  2 52  1  0  0  0
  2 23  1  0  0  0
  3  4  1  0  0  0
  4  6  1  0  0  0
  4  5  2  0  0  0
  5  7  1  0  0  0
  5  8  1  0  0  0
  6 10  1  0  0  0
  6  9  2  0  0  0
  7 11  1  0  0  0
  7 12  2  0  0  0
  8 13  2  0  0  0
  8 14  1  0  0  0
  9 15  1  0  0  0
  9 13  1  0  0  0
 11 14  1  0  0  0
 11 16  1  0  0  0
 13 17  1  0  0  0
 14 18  2  0  0  0
 16 21  1  0  0  0
 16 19  1  0  0  0
 16 20  1  0  0  0
 19 22  2  0  0  0
 19 23  1  0  0  0
 20 24  1  0  0  0
 20 25  1  0  0  0
 20 26  1  0  0  0
 24 28  1  0  0  0
 24 27  1  0  0  0
 24 29  1  0  0  0
 25 32  1  0  0  0
 25 30  1  0  0  0
 25 31  1  0  0  0
 26 33  1  0  0  0
 26 34  1  0  0  0
 26 35  1  0  0  0
 36 37  2  0  0  0
 37 39  1  0  0  0
 37 38  1  0  0  0
 38 40  1  0  0  0
 38 41  1  0  0  0
 39 42  2  0  0  0
 39 43  1  0  0  0
 40 43  1  0  0  0
 40 44  2  0  0  0
 41 47  1  0  0  0
 41 45  1  0  0  0
 41 46  1  0  0  0
 42 49  1  0  0  0
 42 48  1  0  0  0
 43 50  2  0  0  0
 45 51  2  0  0  0
 45 52  1  0  0  0
 46 55  1  0  0  0
 46 53  1  0  0  0
 46 54  1  0  0  0
 48 57  1  0  0  0
 48 56  2  0  0  0
 50 56  1  0  0  0
 50 58  1  0  0  0
 53 61  1  0  0  0
 53 59  1  0  0  0
 53 60  1  0  0  0
 54 63  1  0  0  0
 54 62  1  0  0  0
 54 64  1  0  0  0
 55 66  1  0  0  0
 55 65  1  0  0  0
 55 67  1  0  0  0
 56 68  1  0  0  0
 69 70  2  0  0  0
 70 72  1  0  0  0
 70 71  1  0  0  0
 72 73  1  0  0  0
 72 75  1  0  0  0
 72 74  1  0  0  0
 73 76  1  0  0  0
 73 77  1  0  0  0
 74 80  1  0  0  0
 74 78  1  0  0  0
 74 79  1  0  0  0
 76 82  1  0  0  0
 76 81  2  0  0  0
 77 84  1  0  0  0
 77 83  2  0  0  0
 78 87  1  0  0  0
 78 85  1  0  0  0
 78 86  1  0  0  0
 79 88  1  0  0  0
 79 89  1  0  0  0
 79 90  1  0  0  0
 80 93  1  0  0  0
 80 91  1  0  0  0
 80 92  1  0  0  0
 82 94  1  0  0  0
 82 84  2  0  0  0
 84 95  1  0  0  0
 94 97  1  0  0  0
 94 96  2  0  0  0
 95 98  2  0  0  0
 95 99  1  0  0  0
 96100  1  0  0  0
 96 98  1  0  0  0
 98101  1  0  0  0
102103  1  0  0  0
103105  1  0  0  0
103104  2  0  0  0
105108  1  0  0  0
105106  1  0  0  0
105107  1  0  0  0
106110  1  0  0  0
106109  1  0  0  0
107111  1  0  0  0
107112  1  0  0  0
107113  1  0  0  0
109114  2  0  0  0
109115  1  0  0  0
110117  1  0  0  0
110116  2  0  0  0
111118  1  0  0  0
111119  1  0  0  0
111120  1  0  0  0
112121  1  0  0  0
112122  1  0  0  0
112123  1  0  0  0
113124  1  0  0  0
113125  1  0  0  0
113126  1  0  0  0
115127  2  0  0  0
115117  1  0  0  0
117128  2  0  0  0
127130  1  0  0  0
127129  1  0  0  0
128131  1  0  0  0
128132  1  0  0  0
129133  1  0  0  0
129131  2  0  0  0
131134  1  0  0  0
M  CHG  2   1   2   2   2
M  END
> <s_m_entry_id>
3

> <s_m_entry_name>
syn_R_TS.1

> <s_m_Source_Path>
/uufs/chpc.utah.edu/common/home/u1319506

> <s_m_Source_File>
syn_R_TS.sdf

> <i_m_Source_File_Index>
1

> <s_m_job_name>
PMB_TCPTTL_syn

> <r_mmod_Potential_Energy-S-OPLS>
31696.166015625

> <b_mmod_Minimization_Converged-S-OPLS>
1

> <r_mmod_RMS_Derivative-S-OPLS>
0.0401358045637608

> <i_mmod_Times_Found-S-OPLS>
28

> <r_mmod_Relative_Potential_Energy-S-OPLS>
0

> <i_mmod_Conformation-S-OPLS>
1

> <s_m_subgroup_title>
PMB_TCPTTL_syn-out1

> <s_m_subgroupid>
PMB_TCPTTL_syn-out1

> <b_m_subgroup_collapsed>
0

$$$$
